                                  MODFLOW-2005     
      U.S. GEOLOGICAL SURVEY MODULAR FINITE-DIFFERENCE GROUND-WATER FLOW MODEL
                            VERSION 1.12.00 2/3/2017

 LIST FILE: 2017.list
                         UNIT    2

 OPENING 2017.dis
 FILE TYPE:DIS   UNIT   11   STATUS:OLD    
 FORMAT:FORMATTED              ACCESS:SEQUENTIAL          

 OPENING 2017.bas
 FILE TYPE:BAS6   UNIT   13   STATUS:OLD    
 FORMAT:FORMATTED              ACCESS:SEQUENTIAL          

 OPENING 2017.bcf
 FILE TYPE:BCF6   UNIT   15   STATUS:OLD    
 FORMAT:FORMATTED              ACCESS:SEQUENTIAL          

 OPENING 2017.oc
 FILE TYPE:OC   UNIT   14   STATUS:OLD    
 FORMAT:FORMATTED              ACCESS:SEQUENTIAL          

 OPENING 2017.pcg
 FILE TYPE:PCG   UNIT   27   STATUS:OLD    
 FORMAT:FORMATTED              ACCESS:SEQUENTIAL          

 OPENING 2017.rch
 FILE TYPE:RCH   UNIT   19   STATUS:OLD    
 FORMAT:FORMATTED              ACCESS:SEQUENTIAL          

 OPENING 2017.riv
 FILE TYPE:RIV   UNIT   18   STATUS:OLD    
 FORMAT:FORMATTED              ACCESS:SEQUENTIAL          

 OPENING 2017.hds
 FILE TYPE:DATA(BINARY)   UNIT   51   STATUS:REPLACE
 FORMAT:BINARY                 ACCESS:SEQUENTIAL          

 BAS -- BASIC PACKAGE, VERSION 7, 5/2/2005 INPUT READ FROM UNIT   13
 
 MODFLOW was compiled using mixed precision
 Precision of REAL variables:           6
 Precision of DOUBLE PRECISION variables:          15

 DISCRETIZATION INPUT DATA READ FROM UNIT   11
 # DIS package for  MODFLOW-2005, generated by Flopy.
    2 LAYERS         1 ROWS      1000 COLUMNS
  306 STRESS PERIOD(S) IN SIMULATION
 MODEL TIME UNIT IS DAYS
 MODEL LENGTH UNIT IS METERS
  Confining bed flag for each layer:
   0   0

                     DELR =   1.00000    

                     DELC =   10.0000    

 TOP ELEVATION OF LAYER 1 =   5.00000    

   MODEL LAYER BOTTOM EL. =  -5.00000     FOR LAYER   1

   MODEL LAYER BOTTOM EL. =  -25.0000     FOR LAYER   2


 STRESS PERIOD     LENGTH       TIME STEPS     MULTIPLIER FOR DELT    SS FLAG
 ----------------------------------------------------------------------------
        1         1.000000          1                    1.000         SS
        2         1.000000          1                    1.000         TR
        3         1.000000          1                    1.000         TR
        4         1.000000          1                    1.000         TR
        5         1.000000          1                    1.000         TR
        6         1.000000          1                    1.000         TR
        7         1.000000          1                    1.000         TR
        8         1.000000          1                    1.000         TR
        9         1.000000          1                    1.000         TR
       10         1.000000          1                    1.000         TR
       11         1.000000          1                    1.000         TR
       12         1.000000          1                    1.000         TR
       13         1.000000          1                    1.000         TR
       14         1.000000          1                    1.000         TR
       15         1.000000          1                    1.000         TR
       16         1.000000          1                    1.000         TR
       17         1.000000          1                    1.000         TR
       18         1.000000          1                    1.000         TR
       19         1.000000          1                    1.000         TR
       20         1.000000          1                    1.000         TR
       21         1.000000          1                    1.000         TR
       22         1.000000          1                    1.000         TR
       23         1.000000          1                    1.000         TR
       24         1.000000          1                    1.000         TR
       25         1.000000          1                    1.000         TR
       26         1.000000          1                    1.000         TR
       27         1.000000          1                    1.000         TR
       28         1.000000          1                    1.000         TR
       29         1.000000          1                    1.000         TR
       30         1.000000          1                    1.000         TR
       31         1.000000          1                    1.000         TR
       32         1.000000          1                    1.000         TR
       33         1.000000          1                    1.000         TR
       34         1.000000          1                    1.000         TR
       35         1.000000          1                    1.000         TR
       36         1.000000          1                    1.000         TR
       37         1.000000          1                    1.000         TR
       38         1.000000          1                    1.000         TR
       39         1.000000          1                    1.000         TR
       40         1.000000          1                    1.000         TR
       41         1.000000          1                    1.000         TR
       42         1.000000          1                    1.000         TR
       43         1.000000          1                    1.000         TR
       44         1.000000          1                    1.000         TR
       45         1.000000          1                    1.000         TR
       46         1.000000          1                    1.000         TR
       47         1.000000          1                    1.000         TR
       48         1.000000          1                    1.000         TR
       49         1.000000          1                    1.000         TR
       50         1.000000          1                    1.000         TR
       51         1.000000          1                    1.000         TR
       52         1.000000          1                    1.000         TR
       53         1.000000          1                    1.000         TR
       54         1.000000          1                    1.000         TR
       55         1.000000          1                    1.000         TR
       56         1.000000          1                    1.000         TR
       57         1.000000          1                    1.000         TR
       58         1.000000          1                    1.000         TR
       59         1.000000          1                    1.000         TR
       60         1.000000          1                    1.000         TR
       61         1.000000          1                    1.000         TR
       62         1.000000          1                    1.000         TR
       63         1.000000          1                    1.000         TR
       64         1.000000          1                    1.000         TR
       65         1.000000          1                    1.000         TR
       66         1.000000          1                    1.000         TR
       67         1.000000          1                    1.000         TR
       68         1.000000          1                    1.000         TR
       69         1.000000          1                    1.000         TR
       70         1.000000          1                    1.000         TR
       71         1.000000          1                    1.000         TR
       72         1.000000          1                    1.000         TR
       73         1.000000          1                    1.000         TR
       74         1.000000          1                    1.000         TR
       75         1.000000          1                    1.000         TR
       76         1.000000          1                    1.000         TR
       77         1.000000          1                    1.000         TR
       78         1.000000          1                    1.000         TR
       79         1.000000          1                    1.000         TR
       80         1.000000          1                    1.000         TR
       81         1.000000          1                    1.000         TR
       82         1.000000          1                    1.000         TR
       83         1.000000          1                    1.000         TR
       84         1.000000          1                    1.000         TR
       85         1.000000          1                    1.000         TR
       86         1.000000          1                    1.000         TR
       87         1.000000          1                    1.000         TR
       88         1.000000          1                    1.000         TR
       89         1.000000          1                    1.000         TR
       90         1.000000          1                    1.000         TR
       91         1.000000          1                    1.000         TR
       92         1.000000          1                    1.000         TR
       93         1.000000          1                    1.000         TR
       94         1.000000          1                    1.000         TR
       95         1.000000          1                    1.000         TR
       96         1.000000          1                    1.000         TR
       97         1.000000          1                    1.000         TR
       98         1.000000          1                    1.000         TR
       99         1.000000          1                    1.000         TR
      100         1.000000          1                    1.000         TR
      101         1.000000          1                    1.000         TR
      102         1.000000          1                    1.000         TR
      103         1.000000          1                    1.000         TR
      104         1.000000          1                    1.000         TR
      105         1.000000          1                    1.000         TR
      106         1.000000          1                    1.000         TR
      107         1.000000          1                    1.000         TR
      108         1.000000          1                    1.000         TR
      109         1.000000          1                    1.000         TR
      110         1.000000          1                    1.000         TR
      111         1.000000          1                    1.000         TR
      112         1.000000          1                    1.000         TR
      113         1.000000          1                    1.000         TR
      114         1.000000          1                    1.000         TR
      115         1.000000          1                    1.000         TR
      116         1.000000          1                    1.000         TR
      117         1.000000          1                    1.000         TR
      118         1.000000          1                    1.000         TR
      119         1.000000          1                    1.000         TR
      120         1.000000          1                    1.000         TR
      121         1.000000          1                    1.000         TR
      122         1.000000          1                    1.000         TR
      123         1.000000          1                    1.000         TR
      124         1.000000          1                    1.000         TR
      125         1.000000          1                    1.000         TR
      126         1.000000          1                    1.000         TR
      127         1.000000          1                    1.000         TR
      128         1.000000          1                    1.000         TR
      129         1.000000          1                    1.000         TR
      130         1.000000          1                    1.000         TR
      131         1.000000          1                    1.000         TR
      132         1.000000          1                    1.000         TR
      133         1.000000          1                    1.000         TR
      134         1.000000          1                    1.000         TR
      135         1.000000          1                    1.000         TR
      136         1.000000          1                    1.000         TR
      137         1.000000          1                    1.000         TR
      138         1.000000          1                    1.000         TR
      139         1.000000          1                    1.000         TR
      140         1.000000          1                    1.000         TR
      141         1.000000          1                    1.000         TR
      142         1.000000          1                    1.000         TR
      143         1.000000          1                    1.000         TR
      144         1.000000          1                    1.000         TR
      145         1.000000          1                    1.000         TR
      146         1.000000          1                    1.000         TR
      147         1.000000          1                    1.000         TR
      148         1.000000          1                    1.000         TR
      149         1.000000          1                    1.000         TR
      150         1.000000          1                    1.000         TR
      151         1.000000          1                    1.000         TR
      152         1.000000          1                    1.000         TR
      153         1.000000          1                    1.000         TR
      154         1.000000          1                    1.000         TR
      155         1.000000          1                    1.000         TR
      156         1.000000          1                    1.000         TR
      157         1.000000          1                    1.000         TR
      158         1.000000          1                    1.000         TR
      159         1.000000          1                    1.000         TR
      160         1.000000          1                    1.000         TR
      161         1.000000          1                    1.000         TR
      162         1.000000          1                    1.000         TR
      163         1.000000          1                    1.000         TR
      164         1.000000          1                    1.000         TR
      165         1.000000          1                    1.000         TR
      166         1.000000          1                    1.000         TR
      167         1.000000          1                    1.000         TR
      168         1.000000          1                    1.000         TR
      169         1.000000          1                    1.000         TR
      170         1.000000          1                    1.000         TR
      171         1.000000          1                    1.000         TR
      172         1.000000          1                    1.000         TR
      173         1.000000          1                    1.000         TR
      174         1.000000          1                    1.000         TR
      175         1.000000          1                    1.000         TR
      176         1.000000          1                    1.000         TR
      177         1.000000          1                    1.000         TR
      178         1.000000          1                    1.000         TR
      179         1.000000          1                    1.000         TR
      180         1.000000          1                    1.000         TR
      181         1.000000          1                    1.000         TR
      182         1.000000          1                    1.000         TR
      183         1.000000          1                    1.000         TR
      184         1.000000          1                    1.000         TR
      185         1.000000          1                    1.000         TR
      186         1.000000          1                    1.000         TR
      187         1.000000          1                    1.000         TR
      188         1.000000          1                    1.000         TR
      189         1.000000          1                    1.000         TR
      190         1.000000          1                    1.000         TR
      191         1.000000          1                    1.000         TR
      192         1.000000          1                    1.000         TR
      193         1.000000          1                    1.000         TR
      194         1.000000          1                    1.000         TR
      195         1.000000          1                    1.000         TR
      196         1.000000          1                    1.000         TR
      197         1.000000          1                    1.000         TR
      198         1.000000          1                    1.000         TR
      199         1.000000          1                    1.000         TR
      200         1.000000          1                    1.000         TR
      201         1.000000          1                    1.000         TR
      202         1.000000          1                    1.000         TR
      203         1.000000          1                    1.000         TR
      204         1.000000          1                    1.000         TR
      205         1.000000          1                    1.000         TR
      206         1.000000          1                    1.000         TR
      207         1.000000          1                    1.000         TR
      208         1.000000          1                    1.000         TR
      209         1.000000          1                    1.000         TR
      210         1.000000          1                    1.000         TR
      211         1.000000          1                    1.000         TR
      212         1.000000          1                    1.000         TR
      213         1.000000          1                    1.000         TR
      214         1.000000          1                    1.000         TR
      215         1.000000          1                    1.000         TR
      216         1.000000          1                    1.000         TR
      217         1.000000          1                    1.000         TR
      218         1.000000          1                    1.000         TR
      219         1.000000          1                    1.000         TR
      220         1.000000          1                    1.000         TR
      221         1.000000          1                    1.000         TR
      222         1.000000          1                    1.000         TR
      223         1.000000          1                    1.000         TR
      224         1.000000          1                    1.000         TR
      225         1.000000          1                    1.000         TR
      226         1.000000          1                    1.000         TR
      227         1.000000          1                    1.000         TR
      228         1.000000          1                    1.000         TR
      229         1.000000          1                    1.000         TR
      230         1.000000          1                    1.000         TR
      231         1.000000          1                    1.000         TR
      232         1.000000          1                    1.000         TR
      233         1.000000          1                    1.000         TR
      234         1.000000          1                    1.000         TR
      235         1.000000          1                    1.000         TR
      236         1.000000          1                    1.000         TR
      237         1.000000          1                    1.000         TR
      238         1.000000          1                    1.000         TR
      239         1.000000          1                    1.000         TR
      240         1.000000          1                    1.000         TR
      241         1.000000          1                    1.000         TR
      242         1.000000          1                    1.000         TR
      243         1.000000          1                    1.000         TR
      244         1.000000          1                    1.000         TR
      245         1.000000          1                    1.000         TR
      246         1.000000          1                    1.000         TR
      247         1.000000          1                    1.000         TR
      248         1.000000          1                    1.000         TR
      249         1.000000          1                    1.000         TR
      250         1.000000          1                    1.000         TR
      251         1.000000          1                    1.000         TR
      252         1.000000          1                    1.000         TR
      253         1.000000          1                    1.000         TR
      254         1.000000          1                    1.000         TR
      255         1.000000          1                    1.000         TR
      256         1.000000          1                    1.000         TR
      257         1.000000          1                    1.000         TR
      258         1.000000          1                    1.000         TR
      259         1.000000          1                    1.000         TR
      260         1.000000          1                    1.000         TR
      261         1.000000          1                    1.000         TR
      262         1.000000          1                    1.000         TR
      263         1.000000          1                    1.000         TR
      264         1.000000          1                    1.000         TR
      265         1.000000          1                    1.000         TR
      266         1.000000          1                    1.000         TR
      267         1.000000          1                    1.000         TR
      268         1.000000          1                    1.000         TR
      269         1.000000          1                    1.000         TR
      270         1.000000          1                    1.000         TR
      271         1.000000          1                    1.000         TR
      272         1.000000          1                    1.000         TR
      273         1.000000          1                    1.000         TR
      274         1.000000          1                    1.000         TR
      275         1.000000          1                    1.000         TR
      276         1.000000          1                    1.000         TR
      277         1.000000          1                    1.000         TR
      278         1.000000          1                    1.000         TR
      279         1.000000          1                    1.000         TR
      280         1.000000          1                    1.000         TR
      281         1.000000          1                    1.000         TR
      282         1.000000          1                    1.000         TR
      283         1.000000          1                    1.000         TR
      284         1.000000          1                    1.000         TR
      285         1.000000          1                    1.000         TR
      286         1.000000          1                    1.000         TR
      287         1.000000          1                    1.000         TR
      288         1.000000          1                    1.000         TR
      289         1.000000          1                    1.000         TR
      290         1.000000          1                    1.000         TR
      291         1.000000          1                    1.000         TR
      292         1.000000          1                    1.000         TR
      293         1.000000          1                    1.000         TR
      294         1.000000          1                    1.000         TR
      295         1.000000          1                    1.000         TR
      296         1.000000          1                    1.000         TR
      297         1.000000          1                    1.000         TR
      298         1.000000          1                    1.000         TR
      299         1.000000          1                    1.000         TR
      300         1.000000          1                    1.000         TR
      301         1.000000          1                    1.000         TR
      302         1.000000          1                    1.000         TR
      303         1.000000          1                    1.000         TR
      304         1.000000          1                    1.000         TR
      305         1.000000          1                    1.000         TR
      306         1.000000          1                    1.000         TR

 COMBINED STEADY-STATE AND TRANSIENT SIMULATION



 
 # BAS6 package for  MODFLOW-2005, generated by Flopy.                           
 THE FREE FORMAT OPTION HAS BEEN SELECTED



                     BOUNDARY ARRAY FOR LAYER   1
 READING ON UNIT   13 WITH FORMAT: (1000I10)           



                     BOUNDARY ARRAY FOR LAYER   2
 READING ON UNIT   13 WITH FORMAT: (1000I10)           

 AQUIFER HEAD WILL BE SET TO  -999.99     AT ALL NO-FLOW NODES (IBOUND=0).

             INITIAL HEAD =   0.00000     FOR LAYER   1

             INITIAL HEAD =   0.00000     FOR LAYER   2
 # OC package for  MODFLOW-2005, generated by Flopy.

 OUTPUT CONTROL IS SPECIFIED ONLY AT TIME STEPS FOR WHICH OUTPUT IS DESIRED
 COMPACT CELL-BY-CELL BUDGET FILES WILL BE WRITTEN
 AUXILIARY DATA WILL BE SAVED IN CELL-BY-CELL BUDGET FILES
 HEAD PRINT FORMAT CODE IS   0    DRAWDOWN PRINT FORMAT CODE IS   0
 HEADS WILL BE SAVED ON UNIT   51    DRAWDOWNS WILL BE SAVED ON UNIT    0

 BCF -- BLOCK-CENTERED FLOW PACKAGE, VERSION 7, 5/2/2005
         INPUT READ FROM UNIT 15
 TRANSIENT SIMULATION
 HEAD AT CELLS THAT CONVERT TO DRY= -0.10000E+31
 WETTING CAPABILITY IS NOT ACTIVE
      LAYER  LAYER-TYPE CODE     INTERBLOCK T
      --------------------------------------------
         1            1          0 -- HARMONIC    
         2            3          0 -- HARMONIC    

 COLUMN TO ROW ANISOTROPY =   1.00000    

     PRIMARY STORAGE COEF =  0.150000     FOR LAYER   1

    HYD. COND. ALONG ROWS =   10.0000     FOR LAYER   1

 VERT HYD COND /THICKNESS =  1.000000E-04 FOR LAYER   1

     PRIMARY STORAGE COEF =  0.150000     FOR LAYER   2

    HYD. COND. ALONG ROWS =   10.0000     FOR LAYER   2

   SECONDARY STORAGE COEF =  0.150000     FOR LAYER   2

 RIV -- RIVER PACKAGE, VERSION 7, 5/2/2005 INPUT READ FROM UNIT   18
 # RIV package for  MODFLOW-2005, generated by Flopy.
 No named parameters
 MAXIMUM OF      2 ACTIVE RIVER REACHES AT ONE TIME


     0 River parameters

 RCH -- RECHARGE PACKAGE, VERSION 7, 5/2/2005 INPUT READ FROM UNIT   19
 # RCH package for  MODFLOW-2005, generated by Flopy.
 No named parameters
 OPTION 3 -- RECHARGE TO HIGHEST ACTIVE NODE IN EACH VERTICAL COLUMN


     0 Recharge parameters

 PCG -- CONJUGATE-GRADIENT SOLUTION PACKAGE, VERSION 7, 5/2/2005
 # PCG package for  MODFLOW-2005, generated by Flopy.
 MAXIMUM OF     50 CALLS OF SOLUTION ROUTINE
 MAXIMUM OF     30 INTERNAL ITERATIONS PER CALL TO SOLUTION ROUTINE
 MATRIX PRECONDITIONING TYPE :    1



                                    SOLUTION BY THE CONJUGATE-GRADIENT METHOD
                                   -------------------------------------------
                    MAXIMUM NUMBER OF CALLS TO PCG ROUTINE =       50
                        MAXIMUM ITERATIONS PER CALL TO PCG =       30
                               MATRIX PRECONDITIONING TYPE =        1
        RELAXATION FACTOR (ONLY USED WITH PRECOND. TYPE 1) =    0.10000E+01
 PARAMETER OF POLYNOMIAL PRECOND. = 2 (2) OR IS CALCULATED :        0
                         HEAD CHANGE CRITERION FOR CLOSURE =    0.10000E-04
                     RESIDUAL CHANGE CRITERION FOR CLOSURE =    0.10000E-04
            PCG HEAD AND RESIDUAL CHANGE PRINTOUT INTERVAL =      999
     PRINTING FROM SOLVER IS LIMITED(1) OR SUPPRESSED (>1) =        3
                            STEADY-STATE DAMPING PARAMETER =    0.10000E+01
                               TRANSIENT DAMPING PARAMETER =    0.10000E+01
1
                            STRESS PERIOD NO.    1, LENGTH =   1.000000    
                            -----------------------------------------------

                              NUMBER OF TIME STEPS =     1

                               MULTIPLIER FOR DELT =     1.000

                            INITIAL TIME STEP SIZE =   1.000000    

 REACH NO.  LAYER   ROW   COL     STAGE      CONDUCTANCE     BOTTOM EL.         
 -------------------------------------------------------------------------------
      1      1      1      1       3.000           100.0           2.000    
      2      1      1   1000       3.000           100.0           2.000    

      2 RIVER REACHES

                 RECHARGE =  7.000000E-04
 
 SOLVING FOR HEAD 

 OUTPUT CONTROL FOR STRESS PERIOD    1   TIME STEP    1
    SAVE HEAD FOR ALL LAYERS

 HEAD WILL BE SAVED ON UNIT   51 AT END OF TIME STEP    1, STRESS PERIOD    1
1
  VOLUMETRIC BUDGET FOR ENTIRE MODEL AT END OF TIME STEP    1, STRESS PERIOD   1
  ------------------------------------------------------------------------------

     CUMULATIVE VOLUMES      L**3       RATES FOR THIS TIME STEP      L**3/T
     ------------------                 ------------------------

           IN:                                      IN:
           ---                                      ---
             STORAGE =           0.0000               STORAGE =           0.0000
       CONSTANT HEAD =           0.0000         CONSTANT HEAD =           0.0000
       RIVER LEAKAGE =           0.0000         RIVER LEAKAGE =           0.0000
            RECHARGE =           7.0000              RECHARGE =           7.0000

            TOTAL IN =           7.0000              TOTAL IN =           7.0000

          OUT:                                     OUT:
          ----                                     ----
             STORAGE =           0.0000               STORAGE =           0.0000
       CONSTANT HEAD =           3.2546         CONSTANT HEAD =           3.2546
       RIVER LEAKAGE =           3.7454         RIVER LEAKAGE =           3.7454
            RECHARGE =           0.0000              RECHARGE =           0.0000

           TOTAL OUT =           7.0000             TOTAL OUT =           7.0000

            IN - OUT =       2.2888E-05              IN - OUT =       2.2888E-05

 PERCENT DISCREPANCY =           0.00     PERCENT DISCREPANCY =           0.00






         TIME SUMMARY AT END OF TIME STEP    1 IN STRESS PERIOD    1
                    SECONDS     MINUTES      HOURS       DAYS        YEARS
                    -----------------------------------------------------------
   TIME STEP LENGTH  86400.      1440.0      24.000      1.0000     2.73785E-03
 STRESS PERIOD TIME  86400.      1440.0      24.000      1.0000     2.73785E-03
         TOTAL TIME  86400.      1440.0      24.000      1.0000     2.73785E-03
1
1
                            STRESS PERIOD NO.    2, LENGTH =   1.000000    
                            -----------------------------------------------

                              NUMBER OF TIME STEPS =     1

                               MULTIPLIER FOR DELT =     1.000

                            INITIAL TIME STEP SIZE =   1.000000    

 REUSING NON-PARAMETER RIVER REACHES FROM LAST STRESS PERIOD

      2 RIVER REACHES

                 RECHARGE =  2.200000E-03
 
 SOLVING FOR HEAD 

 OUTPUT CONTROL FOR STRESS PERIOD    2   TIME STEP    1
    SAVE HEAD FOR ALL LAYERS

 HEAD WILL BE SAVED ON UNIT   51 AT END OF TIME STEP    1, STRESS PERIOD    2
1
  VOLUMETRIC BUDGET FOR ENTIRE MODEL AT END OF TIME STEP    1, STRESS PERIOD   2
  ------------------------------------------------------------------------------

     CUMULATIVE VOLUMES      L**3       RATES FOR THIS TIME STEP      L**3/T
     ------------------                 ------------------------

           IN:                                      IN:
           ---                                      ---
             STORAGE =           0.0000               STORAGE =           0.0000
       CONSTANT HEAD =           0.0000         CONSTANT HEAD =           0.0000
       RIVER LEAKAGE =           0.0000         RIVER LEAKAGE =           0.0000
            RECHARGE =          29.0000              RECHARGE =          22.0000

            TOTAL IN =          29.0000              TOTAL IN =          22.0000

          OUT:                                     OUT:
          ----                                     ----
             STORAGE =          14.4735               STORAGE =          14.4735
       CONSTANT HEAD =           6.5096         CONSTANT HEAD =           3.2551
       RIVER LEAKAGE =           8.0167         RIVER LEAKAGE =           4.2713
            RECHARGE =           0.0000              RECHARGE =           0.0000

           TOTAL OUT =          28.9998             TOTAL OUT =          21.9998

            IN - OUT =       1.9073E-04              IN - OUT =       1.6975E-04

 PERCENT DISCREPANCY =           0.00     PERCENT DISCREPANCY =           0.00






         TIME SUMMARY AT END OF TIME STEP    1 IN STRESS PERIOD    2
                    SECONDS     MINUTES      HOURS       DAYS        YEARS
                    -----------------------------------------------------------
   TIME STEP LENGTH  86400.      1440.0      24.000      1.0000     2.73785E-03
 STRESS PERIOD TIME  86400.      1440.0      24.000      1.0000     2.73785E-03
         TOTAL TIME 1.72800E+05  2880.0      48.000      2.0000     5.47570E-03
1
1
                            STRESS PERIOD NO.    3, LENGTH =   1.000000    
                            -----------------------------------------------

                              NUMBER OF TIME STEPS =     1

                               MULTIPLIER FOR DELT =     1.000

                            INITIAL TIME STEP SIZE =   1.000000    

 REUSING NON-PARAMETER RIVER REACHES FROM LAST STRESS PERIOD

      2 RIVER REACHES

                 RECHARGE =  2.700000E-03
 
 SOLVING FOR HEAD 

 OUTPUT CONTROL FOR STRESS PERIOD    3   TIME STEP    1
    SAVE HEAD FOR ALL LAYERS

 HEAD WILL BE SAVED ON UNIT   51 AT END OF TIME STEP    1, STRESS PERIOD    3
1
  VOLUMETRIC BUDGET FOR ENTIRE MODEL AT END OF TIME STEP    1, STRESS PERIOD   3
  ------------------------------------------------------------------------------

     CUMULATIVE VOLUMES      L**3       RATES FOR THIS TIME STEP      L**3/T
     ------------------                 ------------------------

           IN:                                      IN:
           ---                                      ---
             STORAGE =           0.0000               STORAGE =           0.0000
       CONSTANT HEAD =           0.0000         CONSTANT HEAD =           0.0000
       RIVER LEAKAGE =           0.0000         RIVER LEAKAGE =           0.0000
            RECHARGE =          56.0000              RECHARGE =          27.0000

            TOTAL IN =          56.0000              TOTAL IN =          27.0000

          OUT:                                     OUT:
          ----                                     ----
             STORAGE =          33.4420               STORAGE =          18.9685
       CONSTANT HEAD =           9.7657         CONSTANT HEAD =           3.2560
       RIVER LEAKAGE =          12.7922         RIVER LEAKAGE =           4.7755
            RECHARGE =           0.0000              RECHARGE =           0.0000

           TOTAL OUT =          55.9998             TOTAL OUT =          27.0000

            IN - OUT =       2.1362E-04              IN - OUT =       2.0981E-05

 PERCENT DISCREPANCY =           0.00     PERCENT DISCREPANCY =           0.00






         TIME SUMMARY AT END OF TIME STEP    1 IN STRESS PERIOD    3
                    SECONDS     MINUTES      HOURS       DAYS        YEARS
                    -----------------------------------------------------------
   TIME STEP LENGTH  86400.      1440.0      24.000      1.0000     2.73785E-03
 STRESS PERIOD TIME  86400.      1440.0      24.000      1.0000     2.73785E-03
         TOTAL TIME 2.59200E+05  4320.0      72.000      3.0000     8.21355E-03
1
1
                            STRESS PERIOD NO.    4, LENGTH =   1.000000    
                            -----------------------------------------------

                              NUMBER OF TIME STEPS =     1

                               MULTIPLIER FOR DELT =     1.000

                            INITIAL TIME STEP SIZE =   1.000000    

 REUSING NON-PARAMETER RIVER REACHES FROM LAST STRESS PERIOD

      2 RIVER REACHES

                 RECHARGE =  8.000000E-03
 
 SOLVING FOR HEAD 

 OUTPUT CONTROL FOR STRESS PERIOD    4   TIME STEP    1
    SAVE HEAD FOR ALL LAYERS

 HEAD WILL BE SAVED ON UNIT   51 AT END OF TIME STEP    1, STRESS PERIOD    4
1
  VOLUMETRIC BUDGET FOR ENTIRE MODEL AT END OF TIME STEP    1, STRESS PERIOD   4
  ------------------------------------------------------------------------------

     CUMULATIVE VOLUMES      L**3       RATES FOR THIS TIME STEP      L**3/T
     ------------------                 ------------------------

           IN:                                      IN:
           ---                                      ---
             STORAGE =           0.0000               STORAGE =           0.0000
       CONSTANT HEAD =           0.0000         CONSTANT HEAD =           0.0000
       RIVER LEAKAGE =           0.0000         RIVER LEAKAGE =           0.0000
            RECHARGE =         136.0000              RECHARGE =          80.0000

            TOTAL IN =         136.0000              TOTAL IN =          80.0000

          OUT:                                     OUT:
          ----                                     ----
             STORAGE =         103.1807               STORAGE =          69.7387
       CONSTANT HEAD =          13.0247         CONSTANT HEAD =           3.2590
       RIVER LEAKAGE =          19.7943         RIVER LEAKAGE =           7.0021
            RECHARGE =           0.0000              RECHARGE =           0.0000

           TOTAL OUT =         135.9997             TOTAL OUT =          79.9999

            IN - OUT =       3.0518E-04              IN - OUT =       9.9182E-05

 PERCENT DISCREPANCY =           0.00     PERCENT DISCREPANCY =           0.00






         TIME SUMMARY AT END OF TIME STEP    1 IN STRESS PERIOD    4
                    SECONDS     MINUTES      HOURS       DAYS        YEARS
                    -----------------------------------------------------------
   TIME STEP LENGTH  86400.      1440.0      24.000      1.0000     2.73785E-03
 STRESS PERIOD TIME  86400.      1440.0      24.000      1.0000     2.73785E-03
         TOTAL TIME 3.45600E+05  5760.0      96.000      4.0000     1.09514E-02
1
1
                            STRESS PERIOD NO.    5, LENGTH =   1.000000    
                            -----------------------------------------------

                              NUMBER OF TIME STEPS =     1

                               MULTIPLIER FOR DELT =     1.000

                            INITIAL TIME STEP SIZE =   1.000000    

 REUSING NON-PARAMETER RIVER REACHES FROM LAST STRESS PERIOD

      2 RIVER REACHES

                 RECHARGE =  5.000000E-04
 
 SOLVING FOR HEAD 

 OUTPUT CONTROL FOR STRESS PERIOD    5   TIME STEP    1
    SAVE HEAD FOR ALL LAYERS

 HEAD WILL BE SAVED ON UNIT   51 AT END OF TIME STEP    1, STRESS PERIOD    5
1
  VOLUMETRIC BUDGET FOR ENTIRE MODEL AT END OF TIME STEP    1, STRESS PERIOD   5
  ------------------------------------------------------------------------------

     CUMULATIVE VOLUMES      L**3       RATES FOR THIS TIME STEP      L**3/T
     ------------------                 ------------------------

           IN:                                      IN:
           ---                                      ---
             STORAGE =           4.1523               STORAGE =           4.1523
       CONSTANT HEAD =           0.0000         CONSTANT HEAD =           0.0000
       RIVER LEAKAGE =           0.0000         RIVER LEAKAGE =           0.0000
            RECHARGE =         141.0000              RECHARGE =           5.0000

            TOTAL IN =         145.1523              TOTAL IN =           9.1523

          OUT:                                     OUT:
          ----                                     ----
             STORAGE =         103.2407               STORAGE =       5.9959E-02
       CONSTANT HEAD =          16.2852         CONSTANT HEAD =           3.2605
       RIVER LEAKAGE =          25.6264         RIVER LEAKAGE =           5.8321
            RECHARGE =           0.0000              RECHARGE =           0.0000

           TOTAL OUT =         145.1522             TOTAL OUT =           9.1525

            IN - OUT =       1.5259E-04              IN - OUT =      -1.4687E-04

 PERCENT DISCREPANCY =           0.00     PERCENT DISCREPANCY =          -0.00






         TIME SUMMARY AT END OF TIME STEP    1 IN STRESS PERIOD    5
                    SECONDS     MINUTES      HOURS       DAYS        YEARS
                    -----------------------------------------------------------
   TIME STEP LENGTH  86400.      1440.0      24.000      1.0000     2.73785E-03
 STRESS PERIOD TIME  86400.      1440.0      24.000      1.0000     2.73785E-03
         TOTAL TIME 4.32000E+05  7200.0      120.00      5.0000     1.36893E-02
1
1
                            STRESS PERIOD NO.    6, LENGTH =   1.000000    
                            -----------------------------------------------

                              NUMBER OF TIME STEPS =     1

                               MULTIPLIER FOR DELT =     1.000

                            INITIAL TIME STEP SIZE =   1.000000    

 REUSING NON-PARAMETER RIVER REACHES FROM LAST STRESS PERIOD

      2 RIVER REACHES

                 RECHARGE =  5.400000E-03
 
 SOLVING FOR HEAD 

 OUTPUT CONTROL FOR STRESS PERIOD    6   TIME STEP    1
    SAVE HEAD FOR ALL LAYERS

 HEAD WILL BE SAVED ON UNIT   51 AT END OF TIME STEP    1, STRESS PERIOD    6
1
  VOLUMETRIC BUDGET FOR ENTIRE MODEL AT END OF TIME STEP    1, STRESS PERIOD   6
  ------------------------------------------------------------------------------

     CUMULATIVE VOLUMES      L**3       RATES FOR THIS TIME STEP      L**3/T
     ------------------                 ------------------------

           IN:                                      IN:
           ---                                      ---
             STORAGE =           4.1523               STORAGE =           0.0000
       CONSTANT HEAD =           0.0000         CONSTANT HEAD =           0.0000
       RIVER LEAKAGE =           0.0000         RIVER LEAKAGE =           0.0000
            RECHARGE =         195.0000              RECHARGE =          54.0000

            TOTAL IN =         199.1523              TOTAL IN =          54.0000

          OUT:                                     OUT:
          ----                                     ----
             STORAGE =         146.9050               STORAGE =          43.6644
       CONSTANT HEAD =          19.5484         CONSTANT HEAD =           3.2632
       RIVER LEAKAGE =          32.6986         RIVER LEAKAGE =           7.0723
            RECHARGE =           0.0000              RECHARGE =           0.0000

           TOTAL OUT =         199.1520             TOTAL OUT =          53.9998

            IN - OUT =       3.2043E-04              IN - OUT =       1.5259E-04

 PERCENT DISCREPANCY =           0.00     PERCENT DISCREPANCY =           0.00






         TIME SUMMARY AT END OF TIME STEP    1 IN STRESS PERIOD    6
                    SECONDS     MINUTES      HOURS       DAYS        YEARS
                    -----------------------------------------------------------
   TIME STEP LENGTH  86400.      1440.0      24.000      1.0000     2.73785E-03
 STRESS PERIOD TIME  86400.      1440.0      24.000      1.0000     2.73785E-03
         TOTAL TIME 5.18400E+05  8640.0      144.00      6.0000     1.64271E-02
1
1
                            STRESS PERIOD NO.    7, LENGTH =   1.000000    
                            -----------------------------------------------

                              NUMBER OF TIME STEPS =     1

                               MULTIPLIER FOR DELT =     1.000

                            INITIAL TIME STEP SIZE =   1.000000    

 REUSING NON-PARAMETER RIVER REACHES FROM LAST STRESS PERIOD

      2 RIVER REACHES

                 RECHARGE =  2.800000E-03
 
 SOLVING FOR HEAD 

 OUTPUT CONTROL FOR STRESS PERIOD    7   TIME STEP    1
    SAVE HEAD FOR ALL LAYERS

 HEAD WILL BE SAVED ON UNIT   51 AT END OF TIME STEP    1, STRESS PERIOD    7
1
  VOLUMETRIC BUDGET FOR ENTIRE MODEL AT END OF TIME STEP    1, STRESS PERIOD   7
  ------------------------------------------------------------------------------

     CUMULATIVE VOLUMES      L**3       RATES FOR THIS TIME STEP      L**3/T
     ------------------                 ------------------------

           IN:                                      IN:
           ---                                      ---
             STORAGE =           4.1756               STORAGE =       2.3244E-02
       CONSTANT HEAD =           0.0000         CONSTANT HEAD =           0.0000
       RIVER LEAKAGE =           0.0000         RIVER LEAKAGE =           0.0000
            RECHARGE =         223.0000              RECHARGE =          28.0000

            TOTAL IN =         227.1756              TOTAL IN =          28.0232

          OUT:                                     OUT:
          ----                                     ----
             STORAGE =         164.7080               STORAGE =          17.8030
       CONSTANT HEAD =          22.8140         CONSTANT HEAD =           3.2656
       RIVER LEAKAGE =          39.6532         RIVER LEAKAGE =           6.9546
            RECHARGE =           0.0000              RECHARGE =           0.0000

           TOTAL OUT =         227.1752             TOTAL OUT =          28.0232

            IN - OUT =       4.1199E-04              IN - OUT =       8.5831E-05

 PERCENT DISCREPANCY =           0.00     PERCENT DISCREPANCY =           0.00






         TIME SUMMARY AT END OF TIME STEP    1 IN STRESS PERIOD    7
                    SECONDS     MINUTES      HOURS       DAYS        YEARS
                    -----------------------------------------------------------
   TIME STEP LENGTH  86400.      1440.0      24.000      1.0000     2.73785E-03
 STRESS PERIOD TIME  86400.      1440.0      24.000      1.0000     2.73785E-03
         TOTAL TIME 6.04800E+05  10080.      168.00      7.0000     1.91650E-02
1
1
                            STRESS PERIOD NO.    8, LENGTH =   1.000000    
                            -----------------------------------------------

                              NUMBER OF TIME STEPS =     1

                               MULTIPLIER FOR DELT =     1.000

                            INITIAL TIME STEP SIZE =   1.000000    

 REUSING NON-PARAMETER RIVER REACHES FROM LAST STRESS PERIOD

      2 RIVER REACHES

                 RECHARGE =  1.300000E-03
 
 SOLVING FOR HEAD 

 OUTPUT CONTROL FOR STRESS PERIOD    8   TIME STEP    1
    SAVE HEAD FOR ALL LAYERS

 HEAD WILL BE SAVED ON UNIT   51 AT END OF TIME STEP    1, STRESS PERIOD    8
1
  VOLUMETRIC BUDGET FOR ENTIRE MODEL AT END OF TIME STEP    1, STRESS PERIOD   8
  ------------------------------------------------------------------------------

     CUMULATIVE VOLUMES      L**3       RATES FOR THIS TIME STEP      L**3/T
     ------------------                 ------------------------

           IN:                                      IN:
           ---                                      ---
             STORAGE =           5.1666               STORAGE =           0.9910
       CONSTANT HEAD =           0.0000         CONSTANT HEAD =           0.0000
       RIVER LEAKAGE =           0.0000         RIVER LEAKAGE =           0.0000
            RECHARGE =         236.0000              RECHARGE =          13.0000

            TOTAL IN =         241.1666              TOTAL IN =          13.9910

          OUT:                                     OUT:
          ----                                     ----
             STORAGE =         168.9324               STORAGE =           4.2244
       CONSTANT HEAD =          26.0815         CONSTANT HEAD =           3.2675
       RIVER LEAKAGE =          46.1523         RIVER LEAKAGE =           6.4991
            RECHARGE =           0.0000              RECHARGE =           0.0000

           TOTAL OUT =         241.1661             TOTAL OUT =          13.9910

            IN - OUT =       4.4250E-04              IN - OUT =       9.5367E-06

 PERCENT DISCREPANCY =           0.00     PERCENT DISCREPANCY =           0.00






         TIME SUMMARY AT END OF TIME STEP    1 IN STRESS PERIOD    8
                    SECONDS     MINUTES      HOURS       DAYS        YEARS
                    -----------------------------------------------------------
   TIME STEP LENGTH  86400.      1440.0      24.000      1.0000     2.73785E-03
 STRESS PERIOD TIME  86400.      1440.0      24.000      1.0000     2.73785E-03
         TOTAL TIME 6.91200E+05  11520.      192.00      8.0000     2.19028E-02
1
1
                            STRESS PERIOD NO.    9, LENGTH =   1.000000    
                            -----------------------------------------------

                              NUMBER OF TIME STEPS =     1

                               MULTIPLIER FOR DELT =     1.000

                            INITIAL TIME STEP SIZE =   1.000000    

 REUSING NON-PARAMETER RIVER REACHES FROM LAST STRESS PERIOD

      2 RIVER REACHES

                 RECHARGE = -6.000000E-04
 
 SOLVING FOR HEAD 

 OUTPUT CONTROL FOR STRESS PERIOD    9   TIME STEP    1
    SAVE HEAD FOR ALL LAYERS

 HEAD WILL BE SAVED ON UNIT   51 AT END OF TIME STEP    1, STRESS PERIOD    9
1
  VOLUMETRIC BUDGET FOR ENTIRE MODEL AT END OF TIME STEP    1, STRESS PERIOD   9
  ------------------------------------------------------------------------------

     CUMULATIVE VOLUMES      L**3       RATES FOR THIS TIME STEP      L**3/T
     ------------------                 ------------------------

           IN:                                      IN:
           ---                                      ---
             STORAGE =          20.1388               STORAGE =          14.9722
       CONSTANT HEAD =           0.0000         CONSTANT HEAD =           0.0000
       RIVER LEAKAGE =           0.0000         RIVER LEAKAGE =           0.0000
            RECHARGE =         236.0000              RECHARGE =           0.0000

            TOTAL IN =         256.1388              TOTAL IN =          14.9722

          OUT:                                     OUT:
          ----                                     ----
             STORAGE =         169.0169               STORAGE =       8.4582E-02
       CONSTANT HEAD =          29.3500         CONSTANT HEAD =           3.2686
       RIVER LEAKAGE =          51.7714         RIVER LEAKAGE =           5.6190
            RECHARGE =           6.0000              RECHARGE =           6.0000

           TOTAL OUT =         256.1383             TOTAL OUT =          14.9722

            IN - OUT =       5.1880E-04              IN - OUT =       7.2479E-05

 PERCENT DISCREPANCY =           0.00     PERCENT DISCREPANCY =           0.00






         TIME SUMMARY AT END OF TIME STEP    1 IN STRESS PERIOD    9
                    SECONDS     MINUTES      HOURS       DAYS        YEARS
                    -----------------------------------------------------------
   TIME STEP LENGTH  86400.      1440.0      24.000      1.0000     2.73785E-03
 STRESS PERIOD TIME  86400.      1440.0      24.000      1.0000     2.73785E-03
         TOTAL TIME 7.77600E+05  12960.      216.00      9.0000     2.46407E-02
1
1
                            STRESS PERIOD NO.   10, LENGTH =   1.000000    
                            -----------------------------------------------

                              NUMBER OF TIME STEPS =     1

                               MULTIPLIER FOR DELT =     1.000

                            INITIAL TIME STEP SIZE =   1.000000    

 REUSING NON-PARAMETER RIVER REACHES FROM LAST STRESS PERIOD

      2 RIVER REACHES

                 RECHARGE =  1.350000E-02
 
 SOLVING FOR HEAD 

 OUTPUT CONTROL FOR STRESS PERIOD   10   TIME STEP    1
    SAVE HEAD FOR ALL LAYERS

 HEAD WILL BE SAVED ON UNIT   51 AT END OF TIME STEP    1, STRESS PERIOD   10
1
  VOLUMETRIC BUDGET FOR ENTIRE MODEL AT END OF TIME STEP    1, STRESS PERIOD  10
  ------------------------------------------------------------------------------

     CUMULATIVE VOLUMES      L**3       RATES FOR THIS TIME STEP      L**3/T
     ------------------                 ------------------------

           IN:                                      IN:
           ---                                      ---
             STORAGE =          20.1388               STORAGE =           0.0000
       CONSTANT HEAD =           0.0000         CONSTANT HEAD =           0.0000
       RIVER LEAKAGE =           0.0000         RIVER LEAKAGE =           0.0000
            RECHARGE =         371.0000              RECHARGE =         135.0000

            TOTAL IN =         391.1388              TOTAL IN =         135.0000

          OUT:                                     OUT:
          ----                                     ----
             STORAGE =         290.7008               STORAGE =         121.6839
       CONSTANT HEAD =          32.6242         CONSTANT HEAD =           3.2742
       RIVER LEAKAGE =          61.8136         RIVER LEAKAGE =          10.0422
            RECHARGE =           6.0000              RECHARGE =           0.0000

           TOTAL OUT =         391.1386             TOTAL OUT =         135.0002

            IN - OUT =       2.4414E-04              IN - OUT =      -2.4414E-04

 PERCENT DISCREPANCY =           0.00     PERCENT DISCREPANCY =          -0.00






         TIME SUMMARY AT END OF TIME STEP    1 IN STRESS PERIOD   10
                    SECONDS     MINUTES      HOURS       DAYS        YEARS
                    -----------------------------------------------------------
   TIME STEP LENGTH  86400.      1440.0      24.000      1.0000     2.73785E-03
 STRESS PERIOD TIME  86400.      1440.0      24.000      1.0000     2.73785E-03
         TOTAL TIME 8.64000E+05  14400.      240.00      10.000     2.73785E-02
1
1
                            STRESS PERIOD NO.   11, LENGTH =   1.000000    
                            -----------------------------------------------

                              NUMBER OF TIME STEPS =     1

                               MULTIPLIER FOR DELT =     1.000

                            INITIAL TIME STEP SIZE =   1.000000    

 REUSING NON-PARAMETER RIVER REACHES FROM LAST STRESS PERIOD

      2 RIVER REACHES

                 RECHARGE = -8.000000E-04
 
 SOLVING FOR HEAD 

 OUTPUT CONTROL FOR STRESS PERIOD   11   TIME STEP    1
    SAVE HEAD FOR ALL LAYERS

 HEAD WILL BE SAVED ON UNIT   51 AT END OF TIME STEP    1, STRESS PERIOD   11
1
  VOLUMETRIC BUDGET FOR ENTIRE MODEL AT END OF TIME STEP    1, STRESS PERIOD  11
  ------------------------------------------------------------------------------

     CUMULATIVE VOLUMES      L**3       RATES FOR THIS TIME STEP      L**3/T
     ------------------                 ------------------------

           IN:                                      IN:
           ---                                      ---
             STORAGE =          39.2693               STORAGE =          19.1305
       CONSTANT HEAD =           0.0000         CONSTANT HEAD =           0.0000
       RIVER LEAKAGE =           0.0000         RIVER LEAKAGE =           0.0000
            RECHARGE =         371.0000              RECHARGE =           0.0000

            TOTAL IN =         410.2693              TOTAL IN =          19.1305

          OUT:                                     OUT:
          ----                                     ----
             STORAGE =         290.8454               STORAGE =           0.1445
       CONSTANT HEAD =          35.9008         CONSTANT HEAD =           3.2767
       RIVER LEAKAGE =          69.5230         RIVER LEAKAGE =           7.7094
            RECHARGE =          14.0000              RECHARGE =           8.0000

           TOTAL OUT =         410.2692             TOTAL OUT =          19.1306

            IN - OUT =       1.2207E-04              IN - OUT =      -1.3161E-04

 PERCENT DISCREPANCY =           0.00     PERCENT DISCREPANCY =          -0.00






         TIME SUMMARY AT END OF TIME STEP    1 IN STRESS PERIOD   11
                    SECONDS     MINUTES      HOURS       DAYS        YEARS
                    -----------------------------------------------------------
   TIME STEP LENGTH  86400.      1440.0      24.000      1.0000     2.73785E-03
 STRESS PERIOD TIME  86400.      1440.0      24.000      1.0000     2.73785E-03
         TOTAL TIME 9.50400E+05  15840.      264.00      11.000     3.01164E-02
1
1
                            STRESS PERIOD NO.   12, LENGTH =   1.000000    
                            -----------------------------------------------

                              NUMBER OF TIME STEPS =     1

                               MULTIPLIER FOR DELT =     1.000

                            INITIAL TIME STEP SIZE =   1.000000    

 REUSING NON-PARAMETER RIVER REACHES FROM LAST STRESS PERIOD

      2 RIVER REACHES

                 RECHARGE = -1.600000E-03
 
 SOLVING FOR HEAD 

 OUTPUT CONTROL FOR STRESS PERIOD   12   TIME STEP    1
    SAVE HEAD FOR ALL LAYERS

 HEAD WILL BE SAVED ON UNIT   51 AT END OF TIME STEP    1, STRESS PERIOD   12
1
  VOLUMETRIC BUDGET FOR ENTIRE MODEL AT END OF TIME STEP    1, STRESS PERIOD  12
  ------------------------------------------------------------------------------

     CUMULATIVE VOLUMES      L**3       RATES FOR THIS TIME STEP      L**3/T
     ------------------                 ------------------------

           IN:                                      IN:
           ---                                      ---
             STORAGE =          65.0357               STORAGE =          25.7664
       CONSTANT HEAD =           0.0000         CONSTANT HEAD =           0.0000
       RIVER LEAKAGE =           0.0000         RIVER LEAKAGE =           0.0000
            RECHARGE =         371.0000              RECHARGE =           0.0000

            TOTAL IN =         436.0357              TOTAL IN =          25.7664

          OUT:                                     OUT:
          ----                                     ----
             STORAGE =         290.9712               STORAGE =           0.1259
       CONSTANT HEAD =          39.1789         CONSTANT HEAD =           3.2781
       RIVER LEAKAGE =          75.8857         RIVER LEAKAGE =           6.3627
            RECHARGE =          30.0000              RECHARGE =          16.0000

           TOTAL OUT =         436.0358             TOTAL OUT =          25.7667

            IN - OUT =      -9.1553E-05              IN - OUT =      -2.5749E-04

 PERCENT DISCREPANCY =          -0.00     PERCENT DISCREPANCY =          -0.00






         TIME SUMMARY AT END OF TIME STEP    1 IN STRESS PERIOD   12
                    SECONDS     MINUTES      HOURS       DAYS        YEARS
                    -----------------------------------------------------------
   TIME STEP LENGTH  86400.      1440.0      24.000      1.0000     2.73785E-03
 STRESS PERIOD TIME  86400.      1440.0      24.000      1.0000     2.73785E-03
         TOTAL TIME 1.03680E+06  17280.      288.00      12.000     3.28542E-02
1
1
                            STRESS PERIOD NO.   13, LENGTH =   1.000000    
                            -----------------------------------------------

                              NUMBER OF TIME STEPS =     1

                               MULTIPLIER FOR DELT =     1.000

                            INITIAL TIME STEP SIZE =   1.000000    

 REUSING NON-PARAMETER RIVER REACHES FROM LAST STRESS PERIOD

      2 RIVER REACHES

                 RECHARGE = -1.200000E-03
 
 SOLVING FOR HEAD 

 OUTPUT CONTROL FOR STRESS PERIOD   13   TIME STEP    1
    SAVE HEAD FOR ALL LAYERS

 HEAD WILL BE SAVED ON UNIT   51 AT END OF TIME STEP    1, STRESS PERIOD   13
1
  VOLUMETRIC BUDGET FOR ENTIRE MODEL AT END OF TIME STEP    1, STRESS PERIOD  13
  ------------------------------------------------------------------------------

     CUMULATIVE VOLUMES      L**3       RATES FOR THIS TIME STEP      L**3/T
     ------------------                 ------------------------

           IN:                                      IN:
           ---                                      ---
             STORAGE =          86.0666               STORAGE =          21.0310
       CONSTANT HEAD =           0.0000         CONSTANT HEAD =           0.0000
       RIVER LEAKAGE =           0.0000         RIVER LEAKAGE =           0.0000
            RECHARGE =         371.0000              RECHARGE =           0.0000

            TOTAL IN =         457.0667              TOTAL IN =          21.0310

          OUT:                                     OUT:
          ----                                     ----
             STORAGE =         291.0821               STORAGE =           0.1108
       CONSTANT HEAD =          42.4579         CONSTANT HEAD =           3.2790
       RIVER LEAKAGE =          81.5268         RIVER LEAKAGE =           5.6411
            RECHARGE =          42.0000              RECHARGE =          12.0000

           TOTAL OUT =         457.0667             TOTAL OUT =          21.0309

            IN - OUT =      -9.1553E-05              IN - OUT =       4.1962E-05

 PERCENT DISCREPANCY =          -0.00     PERCENT DISCREPANCY =           0.00






         TIME SUMMARY AT END OF TIME STEP    1 IN STRESS PERIOD   13
                    SECONDS     MINUTES      HOURS       DAYS        YEARS
                    -----------------------------------------------------------
   TIME STEP LENGTH  86400.      1440.0      24.000      1.0000     2.73785E-03
 STRESS PERIOD TIME  86400.      1440.0      24.000      1.0000     2.73785E-03
         TOTAL TIME 1.12320E+06  18720.      312.00      13.000     3.55921E-02
1
1
                            STRESS PERIOD NO.   14, LENGTH =   1.000000    
                            -----------------------------------------------

                              NUMBER OF TIME STEPS =     1

                               MULTIPLIER FOR DELT =     1.000

                            INITIAL TIME STEP SIZE =   1.000000    

 REUSING NON-PARAMETER RIVER REACHES FROM LAST STRESS PERIOD

      2 RIVER REACHES

                 RECHARGE = -1.900000E-03
 
 SOLVING FOR HEAD 

 OUTPUT CONTROL FOR STRESS PERIOD   14   TIME STEP    1
    SAVE HEAD FOR ALL LAYERS

 HEAD WILL BE SAVED ON UNIT   51 AT END OF TIME STEP    1, STRESS PERIOD   14
1
  VOLUMETRIC BUDGET FOR ENTIRE MODEL AT END OF TIME STEP    1, STRESS PERIOD  14
  ------------------------------------------------------------------------------

     CUMULATIVE VOLUMES      L**3       RATES FOR THIS TIME STEP      L**3/T
     ------------------                 ------------------------

           IN:                                      IN:
           ---                                      ---
             STORAGE =         113.2730               STORAGE =          27.2063
       CONSTANT HEAD =           0.0000         CONSTANT HEAD =           0.0000
       RIVER LEAKAGE =           0.0000         RIVER LEAKAGE =           0.0000
            RECHARGE =         371.0000              RECHARGE =           0.0000

            TOTAL IN =         484.2730              TOTAL IN =          27.2063

          OUT:                                     OUT:
          ----                                     ----
             STORAGE =         291.1743               STORAGE =       9.2298E-02
       CONSTANT HEAD =          45.7372         CONSTANT HEAD =           3.2793
       RIVER LEAKAGE =          86.3614         RIVER LEAKAGE =           4.8346
            RECHARGE =          61.0000              RECHARGE =          19.0000

           TOTAL OUT =         484.2730             TOTAL OUT =          27.2062

            IN - OUT =           0.0000              IN - OUT =       9.1553E-05

 PERCENT DISCREPANCY =           0.00     PERCENT DISCREPANCY =           0.00






         TIME SUMMARY AT END OF TIME STEP    1 IN STRESS PERIOD   14
                    SECONDS     MINUTES      HOURS       DAYS        YEARS
                    -----------------------------------------------------------
   TIME STEP LENGTH  86400.      1440.0      24.000      1.0000     2.73785E-03
 STRESS PERIOD TIME  86400.      1440.0      24.000      1.0000     2.73785E-03
         TOTAL TIME 1.20960E+06  20160.      336.00      14.000     3.83299E-02
1
1
                            STRESS PERIOD NO.   15, LENGTH =   1.000000    
                            -----------------------------------------------

                              NUMBER OF TIME STEPS =     1

                               MULTIPLIER FOR DELT =     1.000

                            INITIAL TIME STEP SIZE =   1.000000    

 REUSING NON-PARAMETER RIVER REACHES FROM LAST STRESS PERIOD

      2 RIVER REACHES

                 RECHARGE = -1.500000E-03
 
 SOLVING FOR HEAD 

 OUTPUT CONTROL FOR STRESS PERIOD   15   TIME STEP    1
    SAVE HEAD FOR ALL LAYERS

 HEAD WILL BE SAVED ON UNIT   51 AT END OF TIME STEP    1, STRESS PERIOD   15
1
  VOLUMETRIC BUDGET FOR ENTIRE MODEL AT END OF TIME STEP    1, STRESS PERIOD  15
  ------------------------------------------------------------------------------

     CUMULATIVE VOLUMES      L**3       RATES FOR THIS TIME STEP      L**3/T
     ------------------                 ------------------------

           IN:                                      IN:
           ---                                      ---
             STORAGE =         135.9917               STORAGE =          22.7188
       CONSTANT HEAD =           0.0000         CONSTANT HEAD =           0.0000
       RIVER LEAKAGE =           0.0000         RIVER LEAKAGE =           0.0000
            RECHARGE =         371.0000              RECHARGE =           0.0000

            TOTAL IN =         506.9918              TOTAL IN =          22.7188

          OUT:                                     OUT:
          ----                                     ----
             STORAGE =         291.2514               STORAGE =       7.7067E-02
       CONSTANT HEAD =          49.0166         CONSTANT HEAD =           3.2794
       RIVER LEAKAGE =          90.7238         RIVER LEAKAGE =           4.3624
            RECHARGE =          76.0000              RECHARGE =          15.0000

           TOTAL OUT =         506.9918             TOTAL OUT =          22.7189

            IN - OUT =      -6.1035E-05              IN - OUT =      -9.1553E-05

 PERCENT DISCREPANCY =          -0.00     PERCENT DISCREPANCY =          -0.00






         TIME SUMMARY AT END OF TIME STEP    1 IN STRESS PERIOD   15
                    SECONDS     MINUTES      HOURS       DAYS        YEARS
                    -----------------------------------------------------------
   TIME STEP LENGTH  86400.      1440.0      24.000      1.0000     2.73785E-03
 STRESS PERIOD TIME  86400.      1440.0      24.000      1.0000     2.73785E-03
         TOTAL TIME 1.29600E+06  21600.      360.00      15.000     4.10678E-02
1
1
                            STRESS PERIOD NO.   16, LENGTH =   1.000000    
                            -----------------------------------------------

                              NUMBER OF TIME STEPS =     1

                               MULTIPLIER FOR DELT =     1.000

                            INITIAL TIME STEP SIZE =   1.000000    

 REUSING NON-PARAMETER RIVER REACHES FROM LAST STRESS PERIOD

      2 RIVER REACHES

                 RECHARGE = -1.400000E-03
 
 SOLVING FOR HEAD 

 OUTPUT CONTROL FOR STRESS PERIOD   16   TIME STEP    1
    SAVE HEAD FOR ALL LAYERS

 HEAD WILL BE SAVED ON UNIT   51 AT END OF TIME STEP    1, STRESS PERIOD   16
1
  VOLUMETRIC BUDGET FOR ENTIRE MODEL AT END OF TIME STEP    1, STRESS PERIOD  16
  ------------------------------------------------------------------------------

     CUMULATIVE VOLUMES      L**3       RATES FOR THIS TIME STEP      L**3/T
     ------------------                 ------------------------

           IN:                                      IN:
           ---                                      ---
             STORAGE =         157.3089               STORAGE =          21.3172
       CONSTANT HEAD =           0.0000         CONSTANT HEAD =           0.0000
       RIVER LEAKAGE =           0.0000         RIVER LEAKAGE =           0.0000
            RECHARGE =         371.0000              RECHARGE =           0.0000

            TOTAL IN =         528.3090              TOTAL IN =          21.3172

          OUT:                                     OUT:
          ----                                     ----
             STORAGE =         291.3145               STORAGE =       6.3064E-02
       CONSTANT HEAD =          52.2957         CONSTANT HEAD =           3.2792
       RIVER LEAKAGE =          94.6988         RIVER LEAKAGE =           3.9750
            RECHARGE =          90.0000              RECHARGE =          14.0000

           TOTAL OUT =         528.3090             TOTAL OUT =          21.3172

            IN - OUT =      -6.1035E-05              IN - OUT =      -4.9591E-05

 PERCENT DISCREPANCY =          -0.00     PERCENT DISCREPANCY =          -0.00






         TIME SUMMARY AT END OF TIME STEP    1 IN STRESS PERIOD   16
                    SECONDS     MINUTES      HOURS       DAYS        YEARS
                    -----------------------------------------------------------
   TIME STEP LENGTH  86400.      1440.0      24.000      1.0000     2.73785E-03
 STRESS PERIOD TIME  86400.      1440.0      24.000      1.0000     2.73785E-03
         TOTAL TIME 1.38240E+06  23040.      384.00      16.000     4.38056E-02
1
1
                            STRESS PERIOD NO.   17, LENGTH =   1.000000    
                            -----------------------------------------------

                              NUMBER OF TIME STEPS =     1

                               MULTIPLIER FOR DELT =     1.000

                            INITIAL TIME STEP SIZE =   1.000000    

 REUSING NON-PARAMETER RIVER REACHES FROM LAST STRESS PERIOD

      2 RIVER REACHES

                 RECHARGE = -1.900000E-03
 
 SOLVING FOR HEAD 

 OUTPUT CONTROL FOR STRESS PERIOD   17   TIME STEP    1
    SAVE HEAD FOR ALL LAYERS

 HEAD WILL BE SAVED ON UNIT   51 AT END OF TIME STEP    1, STRESS PERIOD   17
1
  VOLUMETRIC BUDGET FOR ENTIRE MODEL AT END OF TIME STEP    1, STRESS PERIOD  17
  ------------------------------------------------------------------------------

     CUMULATIVE VOLUMES      L**3       RATES FOR THIS TIME STEP      L**3/T
     ------------------                 ------------------------

           IN:                                      IN:
           ---                                      ---
             STORAGE =         183.0813               STORAGE =          25.7724
       CONSTANT HEAD =           0.0000         CONSTANT HEAD =           0.0000
       RIVER LEAKAGE =           0.0000         RIVER LEAKAGE =           0.0000
            RECHARGE =         371.0000              RECHARGE =           0.0000

            TOTAL IN =         554.0813              TOTAL IN =          25.7724

          OUT:                                     OUT:
          ----                                     ----
             STORAGE =         291.3617               STORAGE =       4.7227E-02
       CONSTANT HEAD =          55.5743         CONSTANT HEAD =           3.2786
       RIVER LEAKAGE =          98.1453         RIVER LEAKAGE =           3.4465
            RECHARGE =         109.0000              RECHARGE =          19.0000

           TOTAL OUT =         554.0813             TOTAL OUT =          25.7723

            IN - OUT =           0.0000              IN - OUT =       1.2589E-04

 PERCENT DISCREPANCY =           0.00     PERCENT DISCREPANCY =           0.00






         TIME SUMMARY AT END OF TIME STEP    1 IN STRESS PERIOD   17
                    SECONDS     MINUTES      HOURS       DAYS        YEARS
                    -----------------------------------------------------------
   TIME STEP LENGTH  86400.      1440.0      24.000      1.0000     2.73785E-03
 STRESS PERIOD TIME  86400.      1440.0      24.000      1.0000     2.73785E-03
         TOTAL TIME 1.46880E+06  24480.      408.00      17.000     4.65435E-02
1
1
                            STRESS PERIOD NO.   18, LENGTH =   1.000000    
                            -----------------------------------------------

                              NUMBER OF TIME STEPS =     1

                               MULTIPLIER FOR DELT =     1.000

                            INITIAL TIME STEP SIZE =   1.000000    

 REUSING NON-PARAMETER RIVER REACHES FROM LAST STRESS PERIOD

      2 RIVER REACHES

                 RECHARGE = -2.100000E-03
 
 SOLVING FOR HEAD 

 OUTPUT CONTROL FOR STRESS PERIOD   18   TIME STEP    1
    SAVE HEAD FOR ALL LAYERS

 HEAD WILL BE SAVED ON UNIT   51 AT END OF TIME STEP    1, STRESS PERIOD   18
1
  VOLUMETRIC BUDGET FOR ENTIRE MODEL AT END OF TIME STEP    1, STRESS PERIOD  18
  ------------------------------------------------------------------------------

     CUMULATIVE VOLUMES      L**3       RATES FOR THIS TIME STEP      L**3/T
     ------------------                 ------------------------

           IN:                                      IN:
           ---                                      ---
             STORAGE =         210.3375               STORAGE =          27.2562
       CONSTANT HEAD =           0.0000         CONSTANT HEAD =           0.0000
       RIVER LEAKAGE =           0.0000         RIVER LEAKAGE =           0.0000
            RECHARGE =         371.0000              RECHARGE =           0.0000

            TOTAL IN =         581.3375              TOTAL IN =          27.2562

          OUT:                                     OUT:
          ----                                     ----
             STORAGE =         291.3938               STORAGE =       3.2144E-02
       CONSTANT HEAD =          58.8520         CONSTANT HEAD =           3.2776
       RIVER LEAKAGE =         101.0918         RIVER LEAKAGE =           2.9465
            RECHARGE =         130.0000              RECHARGE =          21.0000

           TOTAL OUT =         581.3376             TOTAL OUT =          27.2563

            IN - OUT =      -1.2207E-04              IN - OUT =      -1.1826E-04

 PERCENT DISCREPANCY =          -0.00     PERCENT DISCREPANCY =          -0.00






         TIME SUMMARY AT END OF TIME STEP    1 IN STRESS PERIOD   18
                    SECONDS     MINUTES      HOURS       DAYS        YEARS
                    -----------------------------------------------------------
   TIME STEP LENGTH  86400.      1440.0      24.000      1.0000     2.73785E-03
 STRESS PERIOD TIME  86400.      1440.0      24.000      1.0000     2.73785E-03
         TOTAL TIME 1.55520E+06  25920.      432.00      18.000     4.92813E-02
1
1
                            STRESS PERIOD NO.   19, LENGTH =   1.000000    
                            -----------------------------------------------

                              NUMBER OF TIME STEPS =     1

                               MULTIPLIER FOR DELT =     1.000

                            INITIAL TIME STEP SIZE =   1.000000    

 REUSING NON-PARAMETER RIVER REACHES FROM LAST STRESS PERIOD

      2 RIVER REACHES

                 RECHARGE =  4.500000E-03
 
 SOLVING FOR HEAD 

 OUTPUT CONTROL FOR STRESS PERIOD   19   TIME STEP    1
    SAVE HEAD FOR ALL LAYERS

 HEAD WILL BE SAVED ON UNIT   51 AT END OF TIME STEP    1, STRESS PERIOD   19
1
  VOLUMETRIC BUDGET FOR ENTIRE MODEL AT END OF TIME STEP    1, STRESS PERIOD  19
  ------------------------------------------------------------------------------

     CUMULATIVE VOLUMES      L**3       RATES FOR THIS TIME STEP      L**3/T
     ------------------                 ------------------------

           IN:                                      IN:
           ---                                      ---
             STORAGE =         210.3375               STORAGE =           0.0000
       CONSTANT HEAD =           0.0000         CONSTANT HEAD =           0.0000
       RIVER LEAKAGE =           0.0000         RIVER LEAKAGE =           0.0000
            RECHARGE =         416.0000              RECHARGE =          45.0000

            TOTAL IN =         626.3375              TOTAL IN =          45.0000

          OUT:                                     OUT:
          ----                                     ----
             STORAGE =         328.2763               STORAGE =          36.8824
       CONSTANT HEAD =          62.1307         CONSTANT HEAD =           3.2787
       RIVER LEAKAGE =         105.9308         RIVER LEAKAGE =           4.8389
            RECHARGE =         130.0000              RECHARGE =           0.0000

           TOTAL OUT =         626.3378             TOTAL OUT =          45.0001

            IN - OUT =      -2.4414E-04              IN - OUT =      -1.0300E-04

 PERCENT DISCREPANCY =          -0.00     PERCENT DISCREPANCY =          -0.00






         TIME SUMMARY AT END OF TIME STEP    1 IN STRESS PERIOD   19
                    SECONDS     MINUTES      HOURS       DAYS        YEARS
                    -----------------------------------------------------------
   TIME STEP LENGTH  86400.      1440.0      24.000      1.0000     2.73785E-03
 STRESS PERIOD TIME  86400.      1440.0      24.000      1.0000     2.73785E-03
         TOTAL TIME 1.64160E+06  27360.      456.00      19.000     5.20192E-02
1
1
                            STRESS PERIOD NO.   20, LENGTH =   1.000000    
                            -----------------------------------------------

                              NUMBER OF TIME STEPS =     1

                               MULTIPLIER FOR DELT =     1.000

                            INITIAL TIME STEP SIZE =   1.000000    

 REUSING NON-PARAMETER RIVER REACHES FROM LAST STRESS PERIOD

      2 RIVER REACHES

                 RECHARGE =  5.800000E-03
 
 SOLVING FOR HEAD 

 OUTPUT CONTROL FOR STRESS PERIOD   20   TIME STEP    1
    SAVE HEAD FOR ALL LAYERS

 HEAD WILL BE SAVED ON UNIT   51 AT END OF TIME STEP    1, STRESS PERIOD   20
1
  VOLUMETRIC BUDGET FOR ENTIRE MODEL AT END OF TIME STEP    1, STRESS PERIOD  20
  ------------------------------------------------------------------------------

     CUMULATIVE VOLUMES      L**3       RATES FOR THIS TIME STEP      L**3/T
     ------------------                 ------------------------

           IN:                                      IN:
           ---                                      ---
             STORAGE =         210.3375               STORAGE =           0.0000
       CONSTANT HEAD =           0.0000         CONSTANT HEAD =           0.0000
       RIVER LEAKAGE =           0.0000         RIVER LEAKAGE =           0.0000
            RECHARGE =         474.0000              RECHARGE =          58.0000

            TOTAL IN =         684.3375              TOTAL IN =          58.0000

          OUT:                                     OUT:
          ----                                     ----
             STORAGE =         376.6277               STORAGE =          48.3514
       CONSTANT HEAD =          65.4117         CONSTANT HEAD =           3.2810
       RIVER LEAKAGE =         112.2985         RIVER LEAKAGE =           6.3677
            RECHARGE =         130.0000              RECHARGE =           0.0000

           TOTAL OUT =         684.3378             TOTAL OUT =          58.0001

            IN - OUT =      -2.4414E-04              IN - OUT =      -7.6294E-05

 PERCENT DISCREPANCY =          -0.00     PERCENT DISCREPANCY =          -0.00






         TIME SUMMARY AT END OF TIME STEP    1 IN STRESS PERIOD   20
                    SECONDS     MINUTES      HOURS       DAYS        YEARS
                    -----------------------------------------------------------
   TIME STEP LENGTH  86400.      1440.0      24.000      1.0000     2.73785E-03
 STRESS PERIOD TIME  86400.      1440.0      24.000      1.0000     2.73785E-03
         TOTAL TIME 1.72800E+06  28800.      480.00      20.000     5.47570E-02
1
1
                            STRESS PERIOD NO.   21, LENGTH =   1.000000    
                            -----------------------------------------------

                              NUMBER OF TIME STEPS =     1

                               MULTIPLIER FOR DELT =     1.000

                            INITIAL TIME STEP SIZE =   1.000000    

 REUSING NON-PARAMETER RIVER REACHES FROM LAST STRESS PERIOD

      2 RIVER REACHES

                 RECHARGE = -3.000000E-04
 
 SOLVING FOR HEAD 

 OUTPUT CONTROL FOR STRESS PERIOD   21   TIME STEP    1
    SAVE HEAD FOR ALL LAYERS

 HEAD WILL BE SAVED ON UNIT   51 AT END OF TIME STEP    1, STRESS PERIOD   21
1
  VOLUMETRIC BUDGET FOR ENTIRE MODEL AT END OF TIME STEP    1, STRESS PERIOD  21
  ------------------------------------------------------------------------------

     CUMULATIVE VOLUMES      L**3       RATES FOR THIS TIME STEP      L**3/T
     ------------------                 ------------------------

           IN:                                      IN:
           ---                                      ---
             STORAGE =         221.9838               STORAGE =          11.6463
       CONSTANT HEAD =           0.0000         CONSTANT HEAD =           0.0000
       RIVER LEAKAGE =           0.0000         RIVER LEAKAGE =           0.0000
            RECHARGE =         474.0000              RECHARGE =           0.0000

            TOTAL IN =         695.9838              TOTAL IN =          11.6463

          OUT:                                     OUT:
          ----                                     ----
             STORAGE =         376.7013               STORAGE =       7.3655E-02
       CONSTANT HEAD =          68.6936         CONSTANT HEAD =           3.2819
       RIVER LEAKAGE =         117.5894         RIVER LEAKAGE =           5.2909
            RECHARGE =         133.0000              RECHARGE =           3.0000

           TOTAL OUT =         695.9844             TOTAL OUT =          11.6465

            IN - OUT =      -5.4932E-04              IN - OUT =      -2.2602E-04

 PERCENT DISCREPANCY =          -0.00     PERCENT DISCREPANCY =          -0.00






         TIME SUMMARY AT END OF TIME STEP    1 IN STRESS PERIOD   21
                    SECONDS     MINUTES      HOURS       DAYS        YEARS
                    -----------------------------------------------------------
   TIME STEP LENGTH  86400.      1440.0      24.000      1.0000     2.73785E-03
 STRESS PERIOD TIME  86400.      1440.0      24.000      1.0000     2.73785E-03
         TOTAL TIME 1.81440E+06  30240.      504.00      21.000     5.74949E-02
1
1
                            STRESS PERIOD NO.   22, LENGTH =   1.000000    
                            -----------------------------------------------

                              NUMBER OF TIME STEPS =     1

                               MULTIPLIER FOR DELT =     1.000

                            INITIAL TIME STEP SIZE =   1.000000    

 REUSING NON-PARAMETER RIVER REACHES FROM LAST STRESS PERIOD

      2 RIVER REACHES

                 RECHARGE =  9.000000E-03
 
 SOLVING FOR HEAD 

 OUTPUT CONTROL FOR STRESS PERIOD   22   TIME STEP    1
    SAVE HEAD FOR ALL LAYERS

 HEAD WILL BE SAVED ON UNIT   51 AT END OF TIME STEP    1, STRESS PERIOD   22
1
  VOLUMETRIC BUDGET FOR ENTIRE MODEL AT END OF TIME STEP    1, STRESS PERIOD  22
  ------------------------------------------------------------------------------

     CUMULATIVE VOLUMES      L**3       RATES FOR THIS TIME STEP      L**3/T
     ------------------                 ------------------------

           IN:                                      IN:
           ---                                      ---
             STORAGE =         221.9838               STORAGE =           0.0000
       CONSTANT HEAD =           0.0000         CONSTANT HEAD =           0.0000
       RIVER LEAKAGE =           0.0000         RIVER LEAKAGE =           0.0000
            RECHARGE =         564.0000              RECHARGE =          90.0000

            TOTAL IN =         785.9838              TOTAL IN =          90.0000

          OUT:                                     OUT:
          ----                                     ----
             STORAGE =         455.3426               STORAGE =          78.6413
       CONSTANT HEAD =          71.9793         CONSTANT HEAD =           3.2857
       RIVER LEAKAGE =         125.6625         RIVER LEAKAGE =           8.0731
            RECHARGE =         133.0000              RECHARGE =           0.0000

           TOTAL OUT =         785.9845             TOTAL OUT =          90.0001

            IN - OUT =      -6.7139E-04              IN - OUT =      -1.2207E-04

 PERCENT DISCREPANCY =          -0.00     PERCENT DISCREPANCY =          -0.00






         TIME SUMMARY AT END OF TIME STEP    1 IN STRESS PERIOD   22
                    SECONDS     MINUTES      HOURS       DAYS        YEARS
                    -----------------------------------------------------------
   TIME STEP LENGTH  86400.      1440.0      24.000      1.0000     2.73785E-03
 STRESS PERIOD TIME  86400.      1440.0      24.000      1.0000     2.73785E-03
         TOTAL TIME 1.90080E+06  31680.      528.00      22.000     6.02327E-02
1
1
                            STRESS PERIOD NO.   23, LENGTH =   1.000000    
                            -----------------------------------------------

                              NUMBER OF TIME STEPS =     1

                               MULTIPLIER FOR DELT =     1.000

                            INITIAL TIME STEP SIZE =   1.000000    

 REUSING NON-PARAMETER RIVER REACHES FROM LAST STRESS PERIOD

      2 RIVER REACHES

                 RECHARGE = -1.875000E-03
 
 SOLVING FOR HEAD 

 OUTPUT CONTROL FOR STRESS PERIOD   23   TIME STEP    1
    SAVE HEAD FOR ALL LAYERS

 HEAD WILL BE SAVED ON UNIT   51 AT END OF TIME STEP    1, STRESS PERIOD   23
1
  VOLUMETRIC BUDGET FOR ENTIRE MODEL AT END OF TIME STEP    1, STRESS PERIOD  23
  ------------------------------------------------------------------------------

     CUMULATIVE VOLUMES      L**3       RATES FOR THIS TIME STEP      L**3/T
     ------------------                 ------------------------

           IN:                                      IN:
           ---                                      ---
             STORAGE =         250.1016               STORAGE =          28.1177
       CONSTANT HEAD =           0.0000         CONSTANT HEAD =           0.0000
       RIVER LEAKAGE =           0.0000         RIVER LEAKAGE =           0.0000
            RECHARGE =         564.0000              RECHARGE =           0.0000

            TOTAL IN =         814.1016              TOTAL IN =          28.1177

          OUT:                                     OUT:
          ----                                     ----
             STORAGE =         455.4448               STORAGE =           0.1022
       CONSTANT HEAD =          75.2662         CONSTANT HEAD =           3.2869
       RIVER LEAKAGE =         131.6410         RIVER LEAKAGE =           5.9785
            RECHARGE =         151.7500              RECHARGE =          18.7500

           TOTAL OUT =         814.1020             TOTAL OUT =          28.1176

            IN - OUT =      -4.2725E-04              IN - OUT =       1.6403E-04

 PERCENT DISCREPANCY =          -0.00     PERCENT DISCREPANCY =           0.00






         TIME SUMMARY AT END OF TIME STEP    1 IN STRESS PERIOD   23
                    SECONDS     MINUTES      HOURS       DAYS        YEARS
                    -----------------------------------------------------------
   TIME STEP LENGTH  86400.      1440.0      24.000      1.0000     2.73785E-03
 STRESS PERIOD TIME  86400.      1440.0      24.000      1.0000     2.73785E-03
         TOTAL TIME 1.98720E+06  33120.      552.00      23.000     6.29706E-02
1
1
                            STRESS PERIOD NO.   24, LENGTH =   1.000000    
                            -----------------------------------------------

                              NUMBER OF TIME STEPS =     1

                               MULTIPLIER FOR DELT =     1.000

                            INITIAL TIME STEP SIZE =   1.000000    

 REUSING NON-PARAMETER RIVER REACHES FROM LAST STRESS PERIOD

      2 RIVER REACHES

                 RECHARGE = -1.900000E-03
 
 SOLVING FOR HEAD 

 OUTPUT CONTROL FOR STRESS PERIOD   24   TIME STEP    1
    SAVE HEAD FOR ALL LAYERS

 HEAD WILL BE SAVED ON UNIT   51 AT END OF TIME STEP    1, STRESS PERIOD   24
1
  VOLUMETRIC BUDGET FOR ENTIRE MODEL AT END OF TIME STEP    1, STRESS PERIOD  24
  ------------------------------------------------------------------------------

     CUMULATIVE VOLUMES      L**3       RATES FOR THIS TIME STEP      L**3/T
     ------------------                 ------------------------

           IN:                                      IN:
           ---                                      ---
             STORAGE =         277.3997               STORAGE =          27.2982
       CONSTANT HEAD =           0.0000         CONSTANT HEAD =           0.0000
       RIVER LEAKAGE =           0.0000         RIVER LEAKAGE =           0.0000
            RECHARGE =         564.0000              RECHARGE =           0.0000

            TOTAL IN =         841.3998              TOTAL IN =          27.2982

          OUT:                                     OUT:
          ----                                     ----
             STORAGE =         455.5283               STORAGE =       8.3496E-02
       CONSTANT HEAD =          78.5535         CONSTANT HEAD =           3.2873
       RIVER LEAKAGE =         136.5683         RIVER LEAKAGE =           4.9273
            RECHARGE =         170.7500              RECHARGE =          19.0000

           TOTAL OUT =         841.4001             TOTAL OUT =          27.2981

            IN - OUT =      -3.0518E-04              IN - OUT =       9.9182E-05

 PERCENT DISCREPANCY =          -0.00     PERCENT DISCREPANCY =           0.00






         TIME SUMMARY AT END OF TIME STEP    1 IN STRESS PERIOD   24
                    SECONDS     MINUTES      HOURS       DAYS        YEARS
                    -----------------------------------------------------------
   TIME STEP LENGTH  86400.      1440.0      24.000      1.0000     2.73785E-03
 STRESS PERIOD TIME  86400.      1440.0      24.000      1.0000     2.73785E-03
         TOTAL TIME 2.07360E+06  34560.      576.00      24.000     6.57084E-02
1
1
                            STRESS PERIOD NO.   25, LENGTH =   1.000000    
                            -----------------------------------------------

                              NUMBER OF TIME STEPS =     1

                               MULTIPLIER FOR DELT =     1.000

                            INITIAL TIME STEP SIZE =   1.000000    

 REUSING NON-PARAMETER RIVER REACHES FROM LAST STRESS PERIOD

      2 RIVER REACHES

                 RECHARGE = -2.300000E-03
 
 SOLVING FOR HEAD 

 OUTPUT CONTROL FOR STRESS PERIOD   25   TIME STEP    1
    SAVE HEAD FOR ALL LAYERS

 HEAD WILL BE SAVED ON UNIT   51 AT END OF TIME STEP    1, STRESS PERIOD   25
1
  VOLUMETRIC BUDGET FOR ENTIRE MODEL AT END OF TIME STEP    1, STRESS PERIOD  25
  ------------------------------------------------------------------------------

     CUMULATIVE VOLUMES      L**3       RATES FOR THIS TIME STEP      L**3/T
     ------------------                 ------------------------

           IN:                                      IN:
           ---                                      ---
             STORAGE =         307.8196               STORAGE =          30.4199
       CONSTANT HEAD =           0.0000         CONSTANT HEAD =           0.0000
       RIVER LEAKAGE =           0.0000         RIVER LEAKAGE =           0.0000
            RECHARGE =         564.0000              RECHARGE =           0.0000

            TOTAL IN =         871.8196              TOTAL IN =          30.4199

          OUT:                                     OUT:
          ----                                     ----
             STORAGE =         455.5917               STORAGE =       6.3437E-02
       CONSTANT HEAD =          81.8406         CONSTANT HEAD =           3.2871
       RIVER LEAKAGE =         140.6379         RIVER LEAKAGE =           4.0696
            RECHARGE =         193.7500              RECHARGE =          23.0000

           TOTAL OUT =         871.8202             TOTAL OUT =          30.4201

            IN - OUT =      -5.4932E-04              IN - OUT =      -2.2697E-04

 PERCENT DISCREPANCY =          -0.00     PERCENT DISCREPANCY =          -0.00






         TIME SUMMARY AT END OF TIME STEP    1 IN STRESS PERIOD   25
                    SECONDS     MINUTES      HOURS       DAYS        YEARS
                    -----------------------------------------------------------
   TIME STEP LENGTH  86400.      1440.0      24.000      1.0000     2.73785E-03
 STRESS PERIOD TIME  86400.      1440.0      24.000      1.0000     2.73785E-03
         TOTAL TIME 2.16000E+06  36000.      600.00      25.000     6.84463E-02
1
1
                            STRESS PERIOD NO.   26, LENGTH =   1.000000    
                            -----------------------------------------------

                              NUMBER OF TIME STEPS =     1

                               MULTIPLIER FOR DELT =     1.000

                            INITIAL TIME STEP SIZE =   1.000000    

 REUSING NON-PARAMETER RIVER REACHES FROM LAST STRESS PERIOD

      2 RIVER REACHES

                 RECHARGE = -2.300000E-03
 
 SOLVING FOR HEAD 

 OUTPUT CONTROL FOR STRESS PERIOD   26   TIME STEP    1
    SAVE HEAD FOR ALL LAYERS

 HEAD WILL BE SAVED ON UNIT   51 AT END OF TIME STEP    1, STRESS PERIOD   26
1
  VOLUMETRIC BUDGET FOR ENTIRE MODEL AT END OF TIME STEP    1, STRESS PERIOD  26
  ------------------------------------------------------------------------------

     CUMULATIVE VOLUMES      L**3       RATES FOR THIS TIME STEP      L**3/T
     ------------------                 ------------------------

           IN:                                      IN:
           ---                                      ---
             STORAGE =         337.5742               STORAGE =          29.7546
       CONSTANT HEAD =           0.0000         CONSTANT HEAD =           0.0000
       RIVER LEAKAGE =           0.0000         RIVER LEAKAGE =           0.0000
            RECHARGE =         564.0000              RECHARGE =           0.0000

            TOTAL IN =         901.5742              TOTAL IN =          29.7546

          OUT:                                     OUT:
          ----                                     ----
             STORAGE =         455.6368               STORAGE =       4.5066E-02
       CONSTANT HEAD =          85.1270         CONSTANT HEAD =           3.2864
       RIVER LEAKAGE =         144.0613         RIVER LEAKAGE =           3.4234
            RECHARGE =         216.7500              RECHARGE =          23.0000

           TOTAL OUT =         901.5751             TOTAL OUT =          29.7548

            IN - OUT =      -8.5449E-04              IN - OUT =      -2.0409E-04

 PERCENT DISCREPANCY =          -0.00     PERCENT DISCREPANCY =          -0.00






         TIME SUMMARY AT END OF TIME STEP    1 IN STRESS PERIOD   26
                    SECONDS     MINUTES      HOURS       DAYS        YEARS
                    -----------------------------------------------------------
   TIME STEP LENGTH  86400.      1440.0      24.000      1.0000     2.73785E-03
 STRESS PERIOD TIME  86400.      1440.0      24.000      1.0000     2.73785E-03
         TOTAL TIME 2.24640E+06  37440.      624.00      26.000     7.11841E-02
1
1
                            STRESS PERIOD NO.   27, LENGTH =   1.000000    
                            -----------------------------------------------

                              NUMBER OF TIME STEPS =     1

                               MULTIPLIER FOR DELT =     1.000

                            INITIAL TIME STEP SIZE =   1.000000    

 REUSING NON-PARAMETER RIVER REACHES FROM LAST STRESS PERIOD

      2 RIVER REACHES

                 RECHARGE = -2.300000E-03
 
 SOLVING FOR HEAD 

 OUTPUT CONTROL FOR STRESS PERIOD   27   TIME STEP    1
    SAVE HEAD FOR ALL LAYERS

 HEAD WILL BE SAVED ON UNIT   51 AT END OF TIME STEP    1, STRESS PERIOD   27
1
  VOLUMETRIC BUDGET FOR ENTIRE MODEL AT END OF TIME STEP    1, STRESS PERIOD  27
  ------------------------------------------------------------------------------

     CUMULATIVE VOLUMES      L**3       RATES FOR THIS TIME STEP      L**3/T
     ------------------                 ------------------------

           IN:                                      IN:
           ---                                      ---
             STORAGE =         366.7781               STORAGE =          29.2038
       CONSTANT HEAD =           0.0000         CONSTANT HEAD =           0.0000
       RIVER LEAKAGE =           0.0000         RIVER LEAKAGE =           0.0000
            RECHARGE =         564.0000              RECHARGE =           0.0000

            TOTAL IN =         930.7781              TOTAL IN =          29.2038

          OUT:                                     OUT:
          ----                                     ----
             STORAGE =         455.6658               STORAGE =       2.8961E-02
       CONSTANT HEAD =          88.4124         CONSTANT HEAD =           3.2854
       RIVER LEAKAGE =         146.9509         RIVER LEAKAGE =           2.8897
            RECHARGE =         239.7500              RECHARGE =          23.0000

           TOTAL OUT =         930.7791             TOTAL OUT =          29.2040

            IN - OUT =      -9.7656E-04              IN - OUT =      -1.8120E-04

 PERCENT DISCREPANCY =          -0.00     PERCENT DISCREPANCY =          -0.00






         TIME SUMMARY AT END OF TIME STEP    1 IN STRESS PERIOD   27
                    SECONDS     MINUTES      HOURS       DAYS        YEARS
                    -----------------------------------------------------------
   TIME STEP LENGTH  86400.      1440.0      24.000      1.0000     2.73785E-03
 STRESS PERIOD TIME  86400.      1440.0      24.000      1.0000     2.73785E-03
         TOTAL TIME 2.33280E+06  38880.      648.00      27.000     7.39220E-02
1
1
                            STRESS PERIOD NO.   28, LENGTH =   1.000000    
                            -----------------------------------------------

                              NUMBER OF TIME STEPS =     1

                               MULTIPLIER FOR DELT =     1.000

                            INITIAL TIME STEP SIZE =   1.000000    

 REUSING NON-PARAMETER RIVER REACHES FROM LAST STRESS PERIOD

      2 RIVER REACHES

                 RECHARGE = -1.900000E-03
 
 SOLVING FOR HEAD 

 OUTPUT CONTROL FOR STRESS PERIOD   28   TIME STEP    1
    SAVE HEAD FOR ALL LAYERS

 HEAD WILL BE SAVED ON UNIT   51 AT END OF TIME STEP    1, STRESS PERIOD   28
1
  VOLUMETRIC BUDGET FOR ENTIRE MODEL AT END OF TIME STEP    1, STRESS PERIOD  28
  ------------------------------------------------------------------------------

     CUMULATIVE VOLUMES      L**3       RATES FOR THIS TIME STEP      L**3/T
     ------------------                 ------------------------

           IN:                                      IN:
           ---                                      ---
             STORAGE =         391.6476               STORAGE =          24.8695
       CONSTANT HEAD =           0.0000         CONSTANT HEAD =           0.0000
       RIVER LEAKAGE =           0.0000         RIVER LEAKAGE =           0.0000
            RECHARGE =         564.0000              RECHARGE =           0.0000

            TOTAL IN =         955.6476              TOTAL IN =          24.8695

          OUT:                                     OUT:
          ----                                     ----
             STORAGE =         455.6829               STORAGE =       1.7082E-02
       CONSTANT HEAD =          91.6966         CONSTANT HEAD =           3.2842
       RIVER LEAKAGE =         149.5191         RIVER LEAKAGE =           2.5681
            RECHARGE =         258.7500              RECHARGE =          19.0000

           TOTAL OUT =         955.6485             TOTAL OUT =          24.8694

            IN - OUT =      -9.1553E-04              IN - OUT =       7.4387E-05

 PERCENT DISCREPANCY =          -0.00     PERCENT DISCREPANCY =           0.00






         TIME SUMMARY AT END OF TIME STEP    1 IN STRESS PERIOD   28
                    SECONDS     MINUTES      HOURS       DAYS        YEARS
                    -----------------------------------------------------------
   TIME STEP LENGTH  86400.      1440.0      24.000      1.0000     2.73785E-03
 STRESS PERIOD TIME  86400.      1440.0      24.000      1.0000     2.73785E-03
         TOTAL TIME 2.41920E+06  40320.      672.00      28.000     7.66598E-02
1
1
                            STRESS PERIOD NO.   29, LENGTH =   1.000000    
                            -----------------------------------------------

                              NUMBER OF TIME STEPS =     1

                               MULTIPLIER FOR DELT =     1.000

                            INITIAL TIME STEP SIZE =   1.000000    

 REUSING NON-PARAMETER RIVER REACHES FROM LAST STRESS PERIOD

      2 RIVER REACHES

                 RECHARGE = -2.600000E-03
 
 SOLVING FOR HEAD 

 OUTPUT CONTROL FOR STRESS PERIOD   29   TIME STEP    1
    SAVE HEAD FOR ALL LAYERS

 HEAD WILL BE SAVED ON UNIT   51 AT END OF TIME STEP    1, STRESS PERIOD   29
1
  VOLUMETRIC BUDGET FOR ENTIRE MODEL AT END OF TIME STEP    1, STRESS PERIOD  29
  ------------------------------------------------------------------------------

     CUMULATIVE VOLUMES      L**3       RATES FOR THIS TIME STEP      L**3/T
     ------------------                 ------------------------

           IN:                                      IN:
           ---                                      ---
             STORAGE =         422.9355               STORAGE =          31.2879
       CONSTANT HEAD =           0.0000         CONSTANT HEAD =           0.0000
       RIVER LEAKAGE =           0.0000         RIVER LEAKAGE =           0.0000
            RECHARGE =         564.0000              RECHARGE =           0.0000

            TOTAL IN =         986.9355              TOTAL IN =          31.2879

          OUT:                                     OUT:
          ----                                     ----
             STORAGE =         455.6886               STORAGE =       5.7173E-03
       CONSTANT HEAD =          94.9791         CONSTANT HEAD =           3.2826
       RIVER LEAKAGE =         151.5187         RIVER LEAKAGE =           1.9997
            RECHARGE =         284.7500              RECHARGE =          26.0000

           TOTAL OUT =         986.9364             TOTAL OUT =          31.2879

            IN - OUT =      -8.5449E-04              IN - OUT =       1.7166E-05

 PERCENT DISCREPANCY =          -0.00     PERCENT DISCREPANCY =           0.00






         TIME SUMMARY AT END OF TIME STEP    1 IN STRESS PERIOD   29
                    SECONDS     MINUTES      HOURS       DAYS        YEARS
                    -----------------------------------------------------------
   TIME STEP LENGTH  86400.      1440.0      24.000      1.0000     2.73785E-03
 STRESS PERIOD TIME  86400.      1440.0      24.000      1.0000     2.73785E-03
         TOTAL TIME 2.50560E+06  41760.      696.00      29.000     7.93977E-02
1
1
                            STRESS PERIOD NO.   30, LENGTH =   1.000000    
                            -----------------------------------------------

                              NUMBER OF TIME STEPS =     1

                               MULTIPLIER FOR DELT =     1.000

                            INITIAL TIME STEP SIZE =   1.000000    

 REUSING NON-PARAMETER RIVER REACHES FROM LAST STRESS PERIOD

      2 RIVER REACHES

                 RECHARGE = -2.500000E-03
 
 SOLVING FOR HEAD 

 OUTPUT CONTROL FOR STRESS PERIOD   30   TIME STEP    1
    SAVE HEAD FOR ALL LAYERS

 HEAD WILL BE SAVED ON UNIT   51 AT END OF TIME STEP    1, STRESS PERIOD   30
1
  VOLUMETRIC BUDGET FOR ENTIRE MODEL AT END OF TIME STEP    1, STRESS PERIOD  30
  ------------------------------------------------------------------------------

     CUMULATIVE VOLUMES      L**3       RATES FOR THIS TIME STEP      L**3/T
     ------------------                 ------------------------

           IN:                                      IN:
           ---                                      ---
             STORAGE =         452.7929               STORAGE =          29.8574
       CONSTANT HEAD =           0.0000         CONSTANT HEAD =           0.0000
       RIVER LEAKAGE =           0.0000         RIVER LEAKAGE =           0.0000
            RECHARGE =         564.0000              RECHARGE =           0.0000

            TOTAL IN =        1016.7928              TOTAL IN =          29.8574

          OUT:                                     OUT:
          ----                                     ----
             STORAGE =         455.6886               STORAGE =           0.0000
       CONSTANT HEAD =          98.2598         CONSTANT HEAD =           3.2806
       RIVER LEAKAGE =         153.0954         RIVER LEAKAGE =           1.5766
            RECHARGE =         309.7500              RECHARGE =          25.0000

           TOTAL OUT =        1016.7937             TOTAL OUT =          29.8573

            IN - OUT =      -8.5449E-04              IN - OUT =       9.5367E-05

 PERCENT DISCREPANCY =          -0.00     PERCENT DISCREPANCY =           0.00






         TIME SUMMARY AT END OF TIME STEP    1 IN STRESS PERIOD   30
                    SECONDS     MINUTES      HOURS       DAYS        YEARS
                    -----------------------------------------------------------
   TIME STEP LENGTH  86400.      1440.0      24.000      1.0000     2.73785E-03
 STRESS PERIOD TIME  86400.      1440.0      24.000      1.0000     2.73785E-03
         TOTAL TIME 2.59200E+06  43200.      720.00      30.000     8.21355E-02
1
1
                            STRESS PERIOD NO.   31, LENGTH =   1.000000    
                            -----------------------------------------------

                              NUMBER OF TIME STEPS =     1

                               MULTIPLIER FOR DELT =     1.000

                            INITIAL TIME STEP SIZE =   1.000000    

 REUSING NON-PARAMETER RIVER REACHES FROM LAST STRESS PERIOD

      2 RIVER REACHES

                 RECHARGE = -7.750000E-04
 
 SOLVING FOR HEAD 

 OUTPUT CONTROL FOR STRESS PERIOD   31   TIME STEP    1
    SAVE HEAD FOR ALL LAYERS

 HEAD WILL BE SAVED ON UNIT   51 AT END OF TIME STEP    1, STRESS PERIOD   31
1
  VOLUMETRIC BUDGET FOR ENTIRE MODEL AT END OF TIME STEP    1, STRESS PERIOD  31
  ------------------------------------------------------------------------------

     CUMULATIVE VOLUMES      L**3       RATES FOR THIS TIME STEP      L**3/T
     ------------------                 ------------------------

           IN:                                      IN:
           ---                                      ---
             STORAGE =         465.7492               STORAGE =          12.9563
       CONSTANT HEAD =           0.0000         CONSTANT HEAD =           0.0000
       RIVER LEAKAGE =           0.0000         RIVER LEAKAGE =           0.0000
            RECHARGE =         564.0000              RECHARGE =           0.0000

            TOTAL IN =        1029.7493              TOTAL IN =          12.9563

          OUT:                                     OUT:
          ----                                     ----
             STORAGE =         455.8185               STORAGE =           0.1299
       CONSTANT HEAD =         101.5388         CONSTANT HEAD =           3.2791
       RIVER LEAKAGE =         154.8926         RIVER LEAKAGE =           1.7972
            RECHARGE =         317.5000              RECHARGE =           7.7500

           TOTAL OUT =        1029.7500             TOTAL OUT =          12.9563

            IN - OUT =      -7.3242E-04              IN - OUT =       6.3896E-05

 PERCENT DISCREPANCY =          -0.00     PERCENT DISCREPANCY =           0.00






         TIME SUMMARY AT END OF TIME STEP    1 IN STRESS PERIOD   31
                    SECONDS     MINUTES      HOURS       DAYS        YEARS
                    -----------------------------------------------------------
   TIME STEP LENGTH  86400.      1440.0      24.000      1.0000     2.73785E-03
 STRESS PERIOD TIME  86400.      1440.0      24.000      1.0000     2.73785E-03
         TOTAL TIME 2.67840E+06  44640.      744.00      31.000     8.48734E-02
1
1
                            STRESS PERIOD NO.   32, LENGTH =   1.000000    
                            -----------------------------------------------

                              NUMBER OF TIME STEPS =     1

                               MULTIPLIER FOR DELT =     1.000

                            INITIAL TIME STEP SIZE =   1.000000    

 REUSING NON-PARAMETER RIVER REACHES FROM LAST STRESS PERIOD

      2 RIVER REACHES

                 RECHARGE = -2.200000E-03
 
 SOLVING FOR HEAD 

 OUTPUT CONTROL FOR STRESS PERIOD   32   TIME STEP    1
    SAVE HEAD FOR ALL LAYERS

 HEAD WILL BE SAVED ON UNIT   51 AT END OF TIME STEP    1, STRESS PERIOD   32
1
  VOLUMETRIC BUDGET FOR ENTIRE MODEL AT END OF TIME STEP    1, STRESS PERIOD  32
  ------------------------------------------------------------------------------

     CUMULATIVE VOLUMES      L**3       RATES FOR THIS TIME STEP      L**3/T
     ------------------                 ------------------------

           IN:                                      IN:
           ---                                      ---
             STORAGE =         492.3497               STORAGE =          26.6005
       CONSTANT HEAD =           0.0000         CONSTANT HEAD =           0.0000
       RIVER LEAKAGE =           0.0000         RIVER LEAKAGE =           0.0000
            RECHARGE =         564.0000              RECHARGE =           0.0000

            TOTAL IN =        1056.3496              TOTAL IN =          26.6005

          OUT:                                     OUT:
          ----                                     ----
             STORAGE =         455.8185               STORAGE =           0.0000
       CONSTANT HEAD =         104.8159         CONSTANT HEAD =           3.2771
       RIVER LEAKAGE =         156.2161         RIVER LEAKAGE =           1.3235
            RECHARGE =         339.5000              RECHARGE =          22.0000

           TOTAL OUT =        1056.3506             TOTAL OUT =          26.6006

            IN - OUT =      -9.7656E-04              IN - OUT =      -1.7548E-04

 PERCENT DISCREPANCY =          -0.00     PERCENT DISCREPANCY =          -0.00






         TIME SUMMARY AT END OF TIME STEP    1 IN STRESS PERIOD   32
                    SECONDS     MINUTES      HOURS       DAYS        YEARS
                    -----------------------------------------------------------
   TIME STEP LENGTH  86400.      1440.0      24.000      1.0000     2.73785E-03
 STRESS PERIOD TIME  86400.      1440.0      24.000      1.0000     2.73785E-03
         TOTAL TIME 2.76480E+06  46080.      768.00      32.000     8.76112E-02
1
1
                            STRESS PERIOD NO.   33, LENGTH =   1.000000    
                            -----------------------------------------------

                              NUMBER OF TIME STEPS =     1

                               MULTIPLIER FOR DELT =     1.000

                            INITIAL TIME STEP SIZE =   1.000000    

 REUSING NON-PARAMETER RIVER REACHES FROM LAST STRESS PERIOD

      2 RIVER REACHES

                 RECHARGE = -6.000000E-04
 
 SOLVING FOR HEAD 

 OUTPUT CONTROL FOR STRESS PERIOD   33   TIME STEP    1
    SAVE HEAD FOR ALL LAYERS

 HEAD WILL BE SAVED ON UNIT   51 AT END OF TIME STEP    1, STRESS PERIOD   33
1
  VOLUMETRIC BUDGET FOR ENTIRE MODEL AT END OF TIME STEP    1, STRESS PERIOD  33
  ------------------------------------------------------------------------------

     CUMULATIVE VOLUMES      L**3       RATES FOR THIS TIME STEP      L**3/T
     ------------------                 ------------------------

           IN:                                      IN:
           ---                                      ---
             STORAGE =         503.3262               STORAGE =          10.9766
       CONSTANT HEAD =           0.0000         CONSTANT HEAD =           0.0000
       RIVER LEAKAGE =           0.0000         RIVER LEAKAGE =           0.0000
            RECHARGE =         564.0000              RECHARGE =           0.0000

            TOTAL IN =        1067.3262              TOTAL IN =          10.9766

          OUT:                                     OUT:
          ----                                     ----
             STORAGE =         455.9835               STORAGE =           0.1649
       CONSTANT HEAD =         108.0913         CONSTANT HEAD =           3.2754
       RIVER LEAKAGE =         157.7522         RIVER LEAKAGE =           1.5361
            RECHARGE =         345.5000              RECHARGE =           6.0000

           TOTAL OUT =        1067.3271             TOTAL OUT =          10.9765

            IN - OUT =      -9.7656E-04              IN - OUT =       9.8228E-05

 PERCENT DISCREPANCY =          -0.00     PERCENT DISCREPANCY =           0.00






         TIME SUMMARY AT END OF TIME STEP    1 IN STRESS PERIOD   33
                    SECONDS     MINUTES      HOURS       DAYS        YEARS
                    -----------------------------------------------------------
   TIME STEP LENGTH  86400.      1440.0      24.000      1.0000     2.73785E-03
 STRESS PERIOD TIME  86400.      1440.0      24.000      1.0000     2.73785E-03
         TOTAL TIME 2.85120E+06  47520.      792.00      33.000     9.03491E-02
1
1
                            STRESS PERIOD NO.   34, LENGTH =   1.000000    
                            -----------------------------------------------

                              NUMBER OF TIME STEPS =     1

                               MULTIPLIER FOR DELT =     1.000

                            INITIAL TIME STEP SIZE =   1.000000    

 REUSING NON-PARAMETER RIVER REACHES FROM LAST STRESS PERIOD

      2 RIVER REACHES

                 RECHARGE = -8.750000E-04
 
 SOLVING FOR HEAD 

 OUTPUT CONTROL FOR STRESS PERIOD   34   TIME STEP    1
    SAVE HEAD FOR ALL LAYERS

 HEAD WILL BE SAVED ON UNIT   51 AT END OF TIME STEP    1, STRESS PERIOD   34
1
  VOLUMETRIC BUDGET FOR ENTIRE MODEL AT END OF TIME STEP    1, STRESS PERIOD  34
  ------------------------------------------------------------------------------

     CUMULATIVE VOLUMES      L**3       RATES FOR THIS TIME STEP      L**3/T
     ------------------                 ------------------------

           IN:                                      IN:
           ---                                      ---
             STORAGE =         516.8361               STORAGE =          13.5099
       CONSTANT HEAD =           0.0000         CONSTANT HEAD =           0.0000
       RIVER LEAKAGE =           0.0000         RIVER LEAKAGE =           0.0000
            RECHARGE =         564.0000              RECHARGE =           0.0000

            TOTAL IN =        1080.8362              TOTAL IN =          13.5099

          OUT:                                     OUT:
          ----                                     ----
             STORAGE =         455.9835               STORAGE =           0.0000
       CONSTANT HEAD =         111.3650         CONSTANT HEAD =           3.2737
       RIVER LEAKAGE =         159.2385         RIVER LEAKAGE =           1.4863
            RECHARGE =         354.2500              RECHARGE =           8.7500

           TOTAL OUT =        1080.8370             TOTAL OUT =          13.5099

            IN - OUT =      -8.5449E-04              IN - OUT =      -3.8147E-05

 PERCENT DISCREPANCY =          -0.00     PERCENT DISCREPANCY =          -0.00






         TIME SUMMARY AT END OF TIME STEP    1 IN STRESS PERIOD   34
                    SECONDS     MINUTES      HOURS       DAYS        YEARS
                    -----------------------------------------------------------
   TIME STEP LENGTH  86400.      1440.0      24.000      1.0000     2.73785E-03
 STRESS PERIOD TIME  86400.      1440.0      24.000      1.0000     2.73785E-03
         TOTAL TIME 2.93760E+06  48960.      816.00      34.000     9.30869E-02
1
1
                            STRESS PERIOD NO.   35, LENGTH =   1.000000    
                            -----------------------------------------------

                              NUMBER OF TIME STEPS =     1

                               MULTIPLIER FOR DELT =     1.000

                            INITIAL TIME STEP SIZE =   1.000000    

 REUSING NON-PARAMETER RIVER REACHES FROM LAST STRESS PERIOD

      2 RIVER REACHES

                 RECHARGE = -2.500000E-03
 
 SOLVING FOR HEAD 

 OUTPUT CONTROL FOR STRESS PERIOD   35   TIME STEP    1
    SAVE HEAD FOR ALL LAYERS

 HEAD WILL BE SAVED ON UNIT   51 AT END OF TIME STEP    1, STRESS PERIOD   35
1
  VOLUMETRIC BUDGET FOR ENTIRE MODEL AT END OF TIME STEP    1, STRESS PERIOD  35
  ------------------------------------------------------------------------------

     CUMULATIVE VOLUMES      L**3       RATES FOR THIS TIME STEP      L**3/T
     ------------------                 ------------------------

           IN:                                      IN:
           ---                                      ---
             STORAGE =         545.9587               STORAGE =          29.1226
       CONSTANT HEAD =           0.0000         CONSTANT HEAD =           0.0000
       RIVER LEAKAGE =           0.0000         RIVER LEAKAGE =           0.0000
            RECHARGE =         564.0000              RECHARGE =           0.0000

            TOTAL IN =        1109.9587              TOTAL IN =          29.1226

          OUT:                                     OUT:
          ----                                     ----
             STORAGE =         455.9835               STORAGE =           0.0000
       CONSTANT HEAD =         114.6364         CONSTANT HEAD =           3.2713
       RIVER LEAKAGE =         160.0897         RIVER LEAKAGE =           0.8512
            RECHARGE =         379.2500              RECHARGE =          25.0000

           TOTAL OUT =        1109.9595             TOTAL OUT =          29.1225

            IN - OUT =      -7.3242E-04              IN - OUT =       8.5831E-05

 PERCENT DISCREPANCY =          -0.00     PERCENT DISCREPANCY =           0.00






         TIME SUMMARY AT END OF TIME STEP    1 IN STRESS PERIOD   35
                    SECONDS     MINUTES      HOURS       DAYS        YEARS
                    -----------------------------------------------------------
   TIME STEP LENGTH  86400.      1440.0      24.000      1.0000     2.73785E-03
 STRESS PERIOD TIME  86400.      1440.0      24.000      1.0000     2.73785E-03
         TOTAL TIME 3.02400E+06  50400.      840.00      35.000     9.58248E-02
1
1
                            STRESS PERIOD NO.   36, LENGTH =   1.000000    
                            -----------------------------------------------

                              NUMBER OF TIME STEPS =     1

                               MULTIPLIER FOR DELT =     1.000

                            INITIAL TIME STEP SIZE =   1.000000    

 REUSING NON-PARAMETER RIVER REACHES FROM LAST STRESS PERIOD

      2 RIVER REACHES

                 RECHARGE = -1.500000E-03
 
 SOLVING FOR HEAD 

 OUTPUT CONTROL FOR STRESS PERIOD   36   TIME STEP    1
    SAVE HEAD FOR ALL LAYERS

 HEAD WILL BE SAVED ON UNIT   51 AT END OF TIME STEP    1, STRESS PERIOD   36
1
  VOLUMETRIC BUDGET FOR ENTIRE MODEL AT END OF TIME STEP    1, STRESS PERIOD  36
  ------------------------------------------------------------------------------

     CUMULATIVE VOLUMES      L**3       RATES FOR THIS TIME STEP      L**3/T
     ------------------                 ------------------------

           IN:                                      IN:
           ---                                      ---
             STORAGE =         564.9956               STORAGE =          19.0369
       CONSTANT HEAD =           0.0000         CONSTANT HEAD =           0.0000
       RIVER LEAKAGE =           0.0000         RIVER LEAKAGE =           0.0000
            RECHARGE =         564.0000              RECHARGE =           0.0000

            TOTAL IN =        1128.9956              TOTAL IN =          19.0369

          OUT:                                     OUT:
          ----                                     ----
             STORAGE =         455.9835               STORAGE =           0.0000
       CONSTANT HEAD =         117.9054         CONSTANT HEAD =           3.2691
       RIVER LEAKAGE =         160.8576         RIVER LEAKAGE =           0.7679
            RECHARGE =         394.2500              RECHARGE =          15.0000

           TOTAL OUT =        1128.9965             TOTAL OUT =          19.0370

            IN - OUT =      -8.5449E-04              IN - OUT =      -9.5367E-05

 PERCENT DISCREPANCY =          -0.00     PERCENT DISCREPANCY =          -0.00






         TIME SUMMARY AT END OF TIME STEP    1 IN STRESS PERIOD   36
                    SECONDS     MINUTES      HOURS       DAYS        YEARS
                    -----------------------------------------------------------
   TIME STEP LENGTH  86400.      1440.0      24.000      1.0000     2.73785E-03
 STRESS PERIOD TIME  86400.      1440.0      24.000      1.0000     2.73785E-03
         TOTAL TIME 3.11040E+06  51840.      864.00      36.000     9.85626E-02
1
1
                            STRESS PERIOD NO.   37, LENGTH =   1.000000    
                            -----------------------------------------------

                              NUMBER OF TIME STEPS =     1

                               MULTIPLIER FOR DELT =     1.000

                            INITIAL TIME STEP SIZE =   1.000000    

 REUSING NON-PARAMETER RIVER REACHES FROM LAST STRESS PERIOD

      2 RIVER REACHES

                 RECHARGE = -2.000000E-03
 
 SOLVING FOR HEAD 

 OUTPUT CONTROL FOR STRESS PERIOD   37   TIME STEP    1
    SAVE HEAD FOR ALL LAYERS

 HEAD WILL BE SAVED ON UNIT   51 AT END OF TIME STEP    1, STRESS PERIOD   37
1
  VOLUMETRIC BUDGET FOR ENTIRE MODEL AT END OF TIME STEP    1, STRESS PERIOD  37
  ------------------------------------------------------------------------------

     CUMULATIVE VOLUMES      L**3       RATES FOR THIS TIME STEP      L**3/T
     ------------------                 ------------------------

           IN:                                      IN:
           ---                                      ---
             STORAGE =         588.7143               STORAGE =          23.7187
       CONSTANT HEAD =           0.0000         CONSTANT HEAD =           0.0000
       RIVER LEAKAGE =           0.0000         RIVER LEAKAGE =           0.0000
            RECHARGE =         564.0000              RECHARGE =           0.0000

            TOTAL IN =        1152.7144              TOTAL IN =          23.7187

          OUT:                                     OUT:
          ----                                     ----
             STORAGE =         455.9835               STORAGE =           0.0000
       CONSTANT HEAD =         121.1719         CONSTANT HEAD =           3.2665
       RIVER LEAKAGE =         161.3098         RIVER LEAKAGE =           0.4522
            RECHARGE =         414.2500              RECHARGE =          20.0000

           TOTAL OUT =        1152.7151             TOTAL OUT =          23.7187

            IN - OUT =      -7.3242E-04              IN - OUT =      -7.4387E-05

 PERCENT DISCREPANCY =          -0.00     PERCENT DISCREPANCY =          -0.00






         TIME SUMMARY AT END OF TIME STEP    1 IN STRESS PERIOD   37
                    SECONDS     MINUTES      HOURS       DAYS        YEARS
                    -----------------------------------------------------------
   TIME STEP LENGTH  86400.      1440.0      24.000      1.0000     2.73785E-03
 STRESS PERIOD TIME  86400.      1440.0      24.000      1.0000     2.73785E-03
         TOTAL TIME 3.19680E+06  53280.      888.00      37.000     0.10130    
1
1
                            STRESS PERIOD NO.   38, LENGTH =   1.000000    
                            -----------------------------------------------

                              NUMBER OF TIME STEPS =     1

                               MULTIPLIER FOR DELT =     1.000

                            INITIAL TIME STEP SIZE =   1.000000    

 REUSING NON-PARAMETER RIVER REACHES FROM LAST STRESS PERIOD

      2 RIVER REACHES

                 RECHARGE = -1.800000E-03
 
 SOLVING FOR HEAD 

 OUTPUT CONTROL FOR STRESS PERIOD   38   TIME STEP    1
    SAVE HEAD FOR ALL LAYERS

 HEAD WILL BE SAVED ON UNIT   51 AT END OF TIME STEP    1, STRESS PERIOD   38
1
  VOLUMETRIC BUDGET FOR ENTIRE MODEL AT END OF TIME STEP    1, STRESS PERIOD  38
  ------------------------------------------------------------------------------

     CUMULATIVE VOLUMES      L**3       RATES FOR THIS TIME STEP      L**3/T
     ------------------                 ------------------------

           IN:                                      IN:
           ---                                      ---
             STORAGE =         610.2413               STORAGE =          21.5270
       CONSTANT HEAD =           0.0000         CONSTANT HEAD =           0.0000
       RIVER LEAKAGE =           0.0000         RIVER LEAKAGE =           0.0000
            RECHARGE =         564.0000              RECHARGE =           0.0000

            TOTAL IN =        1174.2412              TOTAL IN =          21.5270

          OUT:                                     OUT:
          ----                                     ----
             STORAGE =         455.9835               STORAGE =           0.0000
       CONSTANT HEAD =         124.4358         CONSTANT HEAD =           3.2639
       RIVER LEAKAGE =         161.5728         RIVER LEAKAGE =           0.2630
            RECHARGE =         432.2500              RECHARGE =          18.0000

           TOTAL OUT =        1174.2419             TOTAL OUT =          21.5268

            IN - OUT =      -7.3242E-04              IN - OUT =       1.2970E-04

 PERCENT DISCREPANCY =          -0.00     PERCENT DISCREPANCY =           0.00






         TIME SUMMARY AT END OF TIME STEP    1 IN STRESS PERIOD   38
                    SECONDS     MINUTES      HOURS       DAYS        YEARS
                    -----------------------------------------------------------
   TIME STEP LENGTH  86400.      1440.0      24.000      1.0000     2.73785E-03
 STRESS PERIOD TIME  86400.      1440.0      24.000      1.0000     2.73785E-03
         TOTAL TIME 3.28320E+06  54720.      912.00      38.000     0.10404    
1
1
                            STRESS PERIOD NO.   39, LENGTH =   1.000000    
                            -----------------------------------------------

                              NUMBER OF TIME STEPS =     1

                               MULTIPLIER FOR DELT =     1.000

                            INITIAL TIME STEP SIZE =   1.000000    

 REUSING NON-PARAMETER RIVER REACHES FROM LAST STRESS PERIOD

      2 RIVER REACHES

                 RECHARGE = -1.275000E-03
 
 SOLVING FOR HEAD 

 OUTPUT CONTROL FOR STRESS PERIOD   39   TIME STEP    1
    SAVE HEAD FOR ALL LAYERS

 HEAD WILL BE SAVED ON UNIT   51 AT END OF TIME STEP    1, STRESS PERIOD   39
1
  VOLUMETRIC BUDGET FOR ENTIRE MODEL AT END OF TIME STEP    1, STRESS PERIOD  39
  ------------------------------------------------------------------------------

     CUMULATIVE VOLUMES      L**3       RATES FOR THIS TIME STEP      L**3/T
     ------------------                 ------------------------

           IN:                                      IN:
           ---                                      ---
             STORAGE =         626.5077               STORAGE =          16.2664
       CONSTANT HEAD =           0.0000         CONSTANT HEAD =           0.0000
       RIVER LEAKAGE =           0.0000         RIVER LEAKAGE =           0.0000
            RECHARGE =         564.0000              RECHARGE =           0.0000

            TOTAL IN =        1190.5077              TOTAL IN =          16.2664

          OUT:                                     OUT:
          ----                                     ----
             STORAGE =         455.9835               STORAGE =           0.0000
       CONSTANT HEAD =         127.6970         CONSTANT HEAD =           3.2613
       RIVER LEAKAGE =         161.8278         RIVER LEAKAGE =           0.2550
            RECHARGE =         445.0000              RECHARGE =          12.7500

           TOTAL OUT =        1190.5083             TOTAL OUT =          16.2663

            IN - OUT =      -6.1035E-04              IN - OUT =       1.4114E-04

 PERCENT DISCREPANCY =          -0.00     PERCENT DISCREPANCY =           0.00






         TIME SUMMARY AT END OF TIME STEP    1 IN STRESS PERIOD   39
                    SECONDS     MINUTES      HOURS       DAYS        YEARS
                    -----------------------------------------------------------
   TIME STEP LENGTH  86400.      1440.0      24.000      1.0000     2.73785E-03
 STRESS PERIOD TIME  86400.      1440.0      24.000      1.0000     2.73785E-03
         TOTAL TIME 3.36960E+06  56160.      936.00      39.000     0.10678    
1
1
                            STRESS PERIOD NO.   40, LENGTH =   1.000000    
                            -----------------------------------------------

                              NUMBER OF TIME STEPS =     1

                               MULTIPLIER FOR DELT =     1.000

                            INITIAL TIME STEP SIZE =   1.000000    

 REUSING NON-PARAMETER RIVER REACHES FROM LAST STRESS PERIOD

      2 RIVER REACHES

                 RECHARGE = -1.400000E-03
 
 SOLVING FOR HEAD 

 OUTPUT CONTROL FOR STRESS PERIOD   40   TIME STEP    1
    SAVE HEAD FOR ALL LAYERS

 HEAD WILL BE SAVED ON UNIT   51 AT END OF TIME STEP    1, STRESS PERIOD   40
1
  VOLUMETRIC BUDGET FOR ENTIRE MODEL AT END OF TIME STEP    1, STRESS PERIOD  40
  ------------------------------------------------------------------------------

     CUMULATIVE VOLUMES      L**3       RATES FOR THIS TIME STEP      L**3/T
     ------------------                 ------------------------

           IN:                                      IN:
           ---                                      ---
             STORAGE =         643.9063               STORAGE =          17.3986
       CONSTANT HEAD =           0.0000         CONSTANT HEAD =           0.0000
       RIVER LEAKAGE =           0.0000         RIVER LEAKAGE =           0.0000
            RECHARGE =         564.0000              RECHARGE =           0.0000

            TOTAL IN =        1207.9062              TOTAL IN =          17.3986

          OUT:                                     OUT:
          ----                                     ----
             STORAGE =         455.9835               STORAGE =           0.0000
       CONSTANT HEAD =         130.9556         CONSTANT HEAD =           3.2586
       RIVER LEAKAGE =         161.9678         RIVER LEAKAGE =           0.1400
            RECHARGE =         459.0000              RECHARGE =          14.0000

           TOTAL OUT =        1207.9070             TOTAL OUT =          17.3986

            IN - OUT =      -7.3242E-04              IN - OUT =      -4.5776E-05

 PERCENT DISCREPANCY =          -0.00     PERCENT DISCREPANCY =          -0.00






         TIME SUMMARY AT END OF TIME STEP    1 IN STRESS PERIOD   40
                    SECONDS     MINUTES      HOURS       DAYS        YEARS
                    -----------------------------------------------------------
   TIME STEP LENGTH  86400.      1440.0      24.000      1.0000     2.73785E-03
 STRESS PERIOD TIME  86400.      1440.0      24.000      1.0000     2.73785E-03
         TOTAL TIME 3.45600E+06  57600.      960.00      40.000     0.10951    
1
1
                            STRESS PERIOD NO.   41, LENGTH =   1.000000    
                            -----------------------------------------------

                              NUMBER OF TIME STEPS =     1

                               MULTIPLIER FOR DELT =     1.000

                            INITIAL TIME STEP SIZE =   1.000000    

 REUSING NON-PARAMETER RIVER REACHES FROM LAST STRESS PERIOD

      2 RIVER REACHES

                 RECHARGE = -2.000000E-03
 
 SOLVING FOR HEAD 

 OUTPUT CONTROL FOR STRESS PERIOD   41   TIME STEP    1
    SAVE HEAD FOR ALL LAYERS

 HEAD WILL BE SAVED ON UNIT   51 AT END OF TIME STEP    1, STRESS PERIOD   41
1
  VOLUMETRIC BUDGET FOR ENTIRE MODEL AT END OF TIME STEP    1, STRESS PERIOD  41
  ------------------------------------------------------------------------------

     CUMULATIVE VOLUMES      L**3       RATES FOR THIS TIME STEP      L**3/T
     ------------------                 ------------------------

           IN:                                      IN:
           ---                                      ---
             STORAGE =         666.9747               STORAGE =          23.0684
       CONSTANT HEAD =           0.0000         CONSTANT HEAD =           0.0000
       RIVER LEAKAGE =           0.1872         RIVER LEAKAGE =           0.1872
            RECHARGE =         564.0000              RECHARGE =           0.0000

            TOTAL IN =        1231.1619              TOTAL IN =          23.2556

          OUT:                                     OUT:
          ----                                     ----
             STORAGE =         455.9835               STORAGE =           0.0000
       CONSTANT HEAD =         134.2113         CONSTANT HEAD =           3.2556
       RIVER LEAKAGE =         161.9678         RIVER LEAKAGE =           0.0000
            RECHARGE =         479.0000              RECHARGE =          20.0000

           TOTAL OUT =        1231.1626             TOTAL OUT =          23.2556

            IN - OUT =      -7.3242E-04              IN - OUT =      -2.8610E-05

 PERCENT DISCREPANCY =          -0.00     PERCENT DISCREPANCY =          -0.00






         TIME SUMMARY AT END OF TIME STEP    1 IN STRESS PERIOD   41
                    SECONDS     MINUTES      HOURS       DAYS        YEARS
                    -----------------------------------------------------------
   TIME STEP LENGTH  86400.      1440.0      24.000      1.0000     2.73785E-03
 STRESS PERIOD TIME  86400.      1440.0      24.000      1.0000     2.73785E-03
         TOTAL TIME 3.54240E+06  59040.      984.00      41.000     0.11225    
1
1
                            STRESS PERIOD NO.   42, LENGTH =   1.000000    
                            -----------------------------------------------

                              NUMBER OF TIME STEPS =     1

                               MULTIPLIER FOR DELT =     1.000

                            INITIAL TIME STEP SIZE =   1.000000    

 REUSING NON-PARAMETER RIVER REACHES FROM LAST STRESS PERIOD

      2 RIVER REACHES

                 RECHARGE = -3.200000E-03
 
 SOLVING FOR HEAD 

 OUTPUT CONTROL FOR STRESS PERIOD   42   TIME STEP    1
    SAVE HEAD FOR ALL LAYERS

 HEAD WILL BE SAVED ON UNIT   51 AT END OF TIME STEP    1, STRESS PERIOD   42
1
  VOLUMETRIC BUDGET FOR ENTIRE MODEL AT END OF TIME STEP    1, STRESS PERIOD  42
  ------------------------------------------------------------------------------

     CUMULATIVE VOLUMES      L**3       RATES FOR THIS TIME STEP      L**3/T
     ------------------                 ------------------------

           IN:                                      IN:
           ---                                      ---
             STORAGE =         701.3713               STORAGE =          34.3965
       CONSTANT HEAD =           0.0000         CONSTANT HEAD =           0.0000
       RIVER LEAKAGE =           1.0429         RIVER LEAKAGE =           0.8557
            RECHARGE =         564.0000              RECHARGE =           0.0000

            TOTAL IN =        1266.4141              TOTAL IN =          35.2522

          OUT:                                     OUT:
          ----                                     ----
             STORAGE =         455.9835               STORAGE =           0.0000
       CONSTANT HEAD =         137.4634         CONSTANT HEAD =           3.2521
       RIVER LEAKAGE =         161.9678         RIVER LEAKAGE =           0.0000
            RECHARGE =         511.0000              RECHARGE =          32.0000

           TOTAL OUT =        1266.4147             TOTAL OUT =          35.2521

            IN - OUT =      -6.1035E-04              IN - OUT =       9.1553E-05

 PERCENT DISCREPANCY =          -0.00     PERCENT DISCREPANCY =           0.00






         TIME SUMMARY AT END OF TIME STEP    1 IN STRESS PERIOD   42
                    SECONDS     MINUTES      HOURS       DAYS        YEARS
                    -----------------------------------------------------------
   TIME STEP LENGTH  86400.      1440.0      24.000      1.0000     2.73785E-03
 STRESS PERIOD TIME  86400.      1440.0      24.000      1.0000     2.73785E-03
         TOTAL TIME 3.62880E+06  60480.      1008.0      42.000     0.11499    
1
1
                            STRESS PERIOD NO.   43, LENGTH =   1.000000    
                            -----------------------------------------------

                              NUMBER OF TIME STEPS =     1

                               MULTIPLIER FOR DELT =     1.000

                            INITIAL TIME STEP SIZE =   1.000000    

 REUSING NON-PARAMETER RIVER REACHES FROM LAST STRESS PERIOD

      2 RIVER REACHES

                 RECHARGE = -1.900000E-03
 
 SOLVING FOR HEAD 

 OUTPUT CONTROL FOR STRESS PERIOD   43   TIME STEP    1
    SAVE HEAD FOR ALL LAYERS

 HEAD WILL BE SAVED ON UNIT   51 AT END OF TIME STEP    1, STRESS PERIOD   43
1
  VOLUMETRIC BUDGET FOR ENTIRE MODEL AT END OF TIME STEP    1, STRESS PERIOD  43
  ------------------------------------------------------------------------------

     CUMULATIVE VOLUMES      L**3       RATES FOR THIS TIME STEP      L**3/T
     ------------------                 ------------------------

           IN:                                      IN:
           ---                                      ---
             STORAGE =         722.7361               STORAGE =          21.3648
       CONSTANT HEAD =           0.0000         CONSTANT HEAD =           0.0000
       RIVER LEAKAGE =           1.9268         RIVER LEAKAGE =           0.8839
            RECHARGE =         564.0000              RECHARGE =           0.0000

            TOTAL IN =        1288.6628              TOTAL IN =          22.2488

          OUT:                                     OUT:
          ----                                     ----
             STORAGE =         455.9835               STORAGE =           0.0000
       CONSTANT HEAD =         140.7121         CONSTANT HEAD =           3.2487
       RIVER LEAKAGE =         161.9678         RIVER LEAKAGE =           0.0000
            RECHARGE =         530.0000              RECHARGE =          19.0000

           TOTAL OUT =        1288.6633             TOTAL OUT =          22.2487

            IN - OUT =      -4.8828E-04              IN - OUT =       5.9128E-05

 PERCENT DISCREPANCY =          -0.00     PERCENT DISCREPANCY =           0.00






         TIME SUMMARY AT END OF TIME STEP    1 IN STRESS PERIOD   43
                    SECONDS     MINUTES      HOURS       DAYS        YEARS
                    -----------------------------------------------------------
   TIME STEP LENGTH  86400.      1440.0      24.000      1.0000     2.73785E-03
 STRESS PERIOD TIME  86400.      1440.0      24.000      1.0000     2.73785E-03
         TOTAL TIME 3.71520E+06  61920.      1032.0      43.000     0.11773    
1
1
                            STRESS PERIOD NO.   44, LENGTH =   1.000000    
                            -----------------------------------------------

                              NUMBER OF TIME STEPS =     1

                               MULTIPLIER FOR DELT =     1.000

                            INITIAL TIME STEP SIZE =   1.000000    

 REUSING NON-PARAMETER RIVER REACHES FROM LAST STRESS PERIOD

      2 RIVER REACHES

                 RECHARGE = -2.300000E-03
 
 SOLVING FOR HEAD 

 OUTPUT CONTROL FOR STRESS PERIOD   44   TIME STEP    1
    SAVE HEAD FOR ALL LAYERS

 HEAD WILL BE SAVED ON UNIT   51 AT END OF TIME STEP    1, STRESS PERIOD   44
1
  VOLUMETRIC BUDGET FOR ENTIRE MODEL AT END OF TIME STEP    1, STRESS PERIOD  44
  ------------------------------------------------------------------------------

     CUMULATIVE VOLUMES      L**3       RATES FOR THIS TIME STEP      L**3/T
     ------------------                 ------------------------

           IN:                                      IN:
           ---                                      ---
             STORAGE =         747.8342               STORAGE =          25.0980
       CONSTANT HEAD =           0.0000         CONSTANT HEAD =           0.0000
       RIVER LEAKAGE =           3.0736         RIVER LEAKAGE =           1.1468
            RECHARGE =         564.0000              RECHARGE =           0.0000

            TOTAL IN =        1314.9077              TOTAL IN =          26.2448

          OUT:                                     OUT:
          ----                                     ----
             STORAGE =         455.9835               STORAGE =           0.0000
       CONSTANT HEAD =         143.9571         CONSTANT HEAD =           3.2451
       RIVER LEAKAGE =         161.9678         RIVER LEAKAGE =           0.0000
            RECHARGE =         553.0000              RECHARGE =          23.0000

           TOTAL OUT =        1314.9084             TOTAL OUT =          26.2451

            IN - OUT =      -7.3242E-04              IN - OUT =      -2.3842E-04

 PERCENT DISCREPANCY =          -0.00     PERCENT DISCREPANCY =          -0.00






         TIME SUMMARY AT END OF TIME STEP    1 IN STRESS PERIOD   44
                    SECONDS     MINUTES      HOURS       DAYS        YEARS
                    -----------------------------------------------------------
   TIME STEP LENGTH  86400.      1440.0      24.000      1.0000     2.73785E-03
 STRESS PERIOD TIME  86400.      1440.0      24.000      1.0000     2.73785E-03
         TOTAL TIME 3.80160E+06  63360.      1056.0      44.000     0.12047    
1
1
                            STRESS PERIOD NO.   45, LENGTH =   1.000000    
                            -----------------------------------------------

                              NUMBER OF TIME STEPS =     1

                               MULTIPLIER FOR DELT =     1.000

                            INITIAL TIME STEP SIZE =   1.000000    

 REUSING NON-PARAMETER RIVER REACHES FROM LAST STRESS PERIOD

      2 RIVER REACHES

                 RECHARGE = -1.000000E-04
 
 SOLVING FOR HEAD 

 OUTPUT CONTROL FOR STRESS PERIOD   45   TIME STEP    1
    SAVE HEAD FOR ALL LAYERS

 HEAD WILL BE SAVED ON UNIT   51 AT END OF TIME STEP    1, STRESS PERIOD   45
1
  VOLUMETRIC BUDGET FOR ENTIRE MODEL AT END OF TIME STEP    1, STRESS PERIOD  45
  ------------------------------------------------------------------------------

     CUMULATIVE VOLUMES      L**3       RATES FOR THIS TIME STEP      L**3/T
     ------------------                 ------------------------

           IN:                                      IN:
           ---                                      ---
             STORAGE =         752.9650               STORAGE =           5.1308
       CONSTANT HEAD =           0.0000         CONSTANT HEAD =           0.0000
       RIVER LEAKAGE =           3.6848         RIVER LEAKAGE =           0.6112
            RECHARGE =         564.0000              RECHARGE =           0.0000

            TOTAL IN =        1320.6499              TOTAL IN =           5.7421

          OUT:                                     OUT:
          ----                                     ----
             STORAGE =         457.4835               STORAGE =           1.5001
       CONSTANT HEAD =         147.1992         CONSTANT HEAD =           3.2421
       RIVER LEAKAGE =         161.9678         RIVER LEAKAGE =           0.0000
            RECHARGE =         554.0000              RECHARGE =           1.0000

           TOTAL OUT =        1320.6506             TOTAL OUT =           5.7421

            IN - OUT =      -7.3242E-04              IN - OUT =      -5.8174E-05

 PERCENT DISCREPANCY =          -0.00     PERCENT DISCREPANCY =          -0.00






         TIME SUMMARY AT END OF TIME STEP    1 IN STRESS PERIOD   45
                    SECONDS     MINUTES      HOURS       DAYS        YEARS
                    -----------------------------------------------------------
   TIME STEP LENGTH  86400.      1440.0      24.000      1.0000     2.73785E-03
 STRESS PERIOD TIME  86400.      1440.0      24.000      1.0000     2.73785E-03
         TOTAL TIME 3.88800E+06  64800.      1080.0      45.000     0.12320    
1
1
                            STRESS PERIOD NO.   46, LENGTH =   1.000000    
                            -----------------------------------------------

                              NUMBER OF TIME STEPS =     1

                               MULTIPLIER FOR DELT =     1.000

                            INITIAL TIME STEP SIZE =   1.000000    

 REUSING NON-PARAMETER RIVER REACHES FROM LAST STRESS PERIOD

      2 RIVER REACHES

                 RECHARGE = -2.175000E-03
 
 SOLVING FOR HEAD 

 OUTPUT CONTROL FOR STRESS PERIOD   46   TIME STEP    1
    SAVE HEAD FOR ALL LAYERS

 HEAD WILL BE SAVED ON UNIT   51 AT END OF TIME STEP    1, STRESS PERIOD   46
1
  VOLUMETRIC BUDGET FOR ENTIRE MODEL AT END OF TIME STEP    1, STRESS PERIOD  46
  ------------------------------------------------------------------------------

     CUMULATIVE VOLUMES      L**3       RATES FOR THIS TIME STEP      L**3/T
     ------------------                 ------------------------

           IN:                                      IN:
           ---                                      ---
             STORAGE =         776.8805               STORAGE =          23.9154
       CONSTANT HEAD =           0.0000         CONSTANT HEAD =           0.0000
       RIVER LEAKAGE =           4.7578         RIVER LEAKAGE =           1.0730
            RECHARGE =         564.0000              RECHARGE =           0.0000

            TOTAL IN =        1345.6383              TOTAL IN =          24.9885

          OUT:                                     OUT:
          ----                                     ----
             STORAGE =         457.4835               STORAGE =           0.0000
       CONSTANT HEAD =         150.4377         CONSTANT HEAD =           3.2385
       RIVER LEAKAGE =         161.9678         RIVER LEAKAGE =           0.0000
            RECHARGE =         575.7500              RECHARGE =          21.7500

           TOTAL OUT =        1345.6392             TOTAL OUT =          24.9885

            IN - OUT =      -8.5449E-04              IN - OUT =      -5.3406E-05

 PERCENT DISCREPANCY =          -0.00     PERCENT DISCREPANCY =          -0.00






         TIME SUMMARY AT END OF TIME STEP    1 IN STRESS PERIOD   46
                    SECONDS     MINUTES      HOURS       DAYS        YEARS
                    -----------------------------------------------------------
   TIME STEP LENGTH  86400.      1440.0      24.000      1.0000     2.73785E-03
 STRESS PERIOD TIME  86400.      1440.0      24.000      1.0000     2.73785E-03
         TOTAL TIME 3.97440E+06  66240.      1104.0      46.000     0.12594    
1
1
                            STRESS PERIOD NO.   47, LENGTH =   1.000000    
                            -----------------------------------------------

                              NUMBER OF TIME STEPS =     1

                               MULTIPLIER FOR DELT =     1.000

                            INITIAL TIME STEP SIZE =   1.000000    

 REUSING NON-PARAMETER RIVER REACHES FROM LAST STRESS PERIOD

      2 RIVER REACHES

                 RECHARGE = -1.175000E-03
 
 SOLVING FOR HEAD 

 OUTPUT CONTROL FOR STRESS PERIOD   47   TIME STEP    1
    SAVE HEAD FOR ALL LAYERS

 HEAD WILL BE SAVED ON UNIT   51 AT END OF TIME STEP    1, STRESS PERIOD   47
1
  VOLUMETRIC BUDGET FOR ENTIRE MODEL AT END OF TIME STEP    1, STRESS PERIOD  47
  ------------------------------------------------------------------------------

     CUMULATIVE VOLUMES      L**3       RATES FOR THIS TIME STEP      L**3/T
     ------------------                 ------------------------

           IN:                                      IN:
           ---                                      ---
             STORAGE =         790.8728               STORAGE =          13.9923
       CONSTANT HEAD =           0.0000         CONSTANT HEAD =           0.0000
       RIVER LEAKAGE =           5.7692         RIVER LEAKAGE =           1.0114
            RECHARGE =         564.0000              RECHARGE =           0.0000

            TOTAL IN =        1360.6421              TOTAL IN =          15.0037

          OUT:                                     OUT:
          ----                                     ----
             STORAGE =         457.5019               STORAGE =       1.8345E-02
       CONSTANT HEAD =         153.6729         CONSTANT HEAD =           3.2351
       RIVER LEAKAGE =         161.9678         RIVER LEAKAGE =           0.0000
            RECHARGE =         587.5000              RECHARGE =          11.7500

           TOTAL OUT =        1360.6426             TOTAL OUT =          15.0035

            IN - OUT =      -4.8828E-04              IN - OUT =       2.3174E-04

 PERCENT DISCREPANCY =          -0.00     PERCENT DISCREPANCY =           0.00






         TIME SUMMARY AT END OF TIME STEP    1 IN STRESS PERIOD   47
                    SECONDS     MINUTES      HOURS       DAYS        YEARS
                    -----------------------------------------------------------
   TIME STEP LENGTH  86400.      1440.0      24.000      1.0000     2.73785E-03
 STRESS PERIOD TIME  86400.      1440.0      24.000      1.0000     2.73785E-03
         TOTAL TIME 4.06080E+06  67680.      1128.0      47.000     0.12868    
1
1
                            STRESS PERIOD NO.   48, LENGTH =   1.000000    
                            -----------------------------------------------

                              NUMBER OF TIME STEPS =     1

                               MULTIPLIER FOR DELT =     1.000

                            INITIAL TIME STEP SIZE =   1.000000    

 REUSING NON-PARAMETER RIVER REACHES FROM LAST STRESS PERIOD

      2 RIVER REACHES

                 RECHARGE =  1.500000E-03
 
 SOLVING FOR HEAD 

 OUTPUT CONTROL FOR STRESS PERIOD   48   TIME STEP    1
    SAVE HEAD FOR ALL LAYERS

 HEAD WILL BE SAVED ON UNIT   51 AT END OF TIME STEP    1, STRESS PERIOD   48
1
  VOLUMETRIC BUDGET FOR ENTIRE MODEL AT END OF TIME STEP    1, STRESS PERIOD  48
  ------------------------------------------------------------------------------

     CUMULATIVE VOLUMES      L**3       RATES FOR THIS TIME STEP      L**3/T
     ------------------                 ------------------------

           IN:                                      IN:
           ---                                      ---
             STORAGE =         791.0649               STORAGE =           0.1921
       CONSTANT HEAD =           0.0000         CONSTANT HEAD =           0.0000
       RIVER LEAKAGE =           5.8669         RIVER LEAKAGE =       9.7707E-02
            RECHARGE =         579.0000              RECHARGE =          15.0000

            TOTAL IN =        1375.9319              TOTAL IN =          15.2898

          OUT:                                     OUT:
          ----                                     ----
             STORAGE =         469.5588               STORAGE =          12.0570
       CONSTANT HEAD =         156.9055         CONSTANT HEAD =           3.2327
       RIVER LEAKAGE =         161.9678         RIVER LEAKAGE =           0.0000
            RECHARGE =         587.5000              RECHARGE =           0.0000

           TOTAL OUT =        1375.9321             TOTAL OUT =          15.2897

            IN - OUT =      -2.4414E-04              IN - OUT =       1.1826E-04

 PERCENT DISCREPANCY =          -0.00     PERCENT DISCREPANCY =           0.00






         TIME SUMMARY AT END OF TIME STEP    1 IN STRESS PERIOD   48
                    SECONDS     MINUTES      HOURS       DAYS        YEARS
                    -----------------------------------------------------------
   TIME STEP LENGTH  86400.      1440.0      24.000      1.0000     2.73785E-03
 STRESS PERIOD TIME  86400.      1440.0      24.000      1.0000     2.73785E-03
         TOTAL TIME 4.14720E+06  69120.      1152.0      48.000     0.13142    
1
1
                            STRESS PERIOD NO.   49, LENGTH =   1.000000    
                            -----------------------------------------------

                              NUMBER OF TIME STEPS =     1

                               MULTIPLIER FOR DELT =     1.000

                            INITIAL TIME STEP SIZE =   1.000000    

 REUSING NON-PARAMETER RIVER REACHES FROM LAST STRESS PERIOD

      2 RIVER REACHES

                 RECHARGE =  1.300000E-03
 
 SOLVING FOR HEAD 

 OUTPUT CONTROL FOR STRESS PERIOD   49   TIME STEP    1
    SAVE HEAD FOR ALL LAYERS

 HEAD WILL BE SAVED ON UNIT   51 AT END OF TIME STEP    1, STRESS PERIOD   49
1
  VOLUMETRIC BUDGET FOR ENTIRE MODEL AT END OF TIME STEP    1, STRESS PERIOD  49
  ------------------------------------------------------------------------------

     CUMULATIVE VOLUMES      L**3       RATES FOR THIS TIME STEP      L**3/T
     ------------------                 ------------------------

           IN:                                      IN:
           ---                                      ---
             STORAGE =         791.2484               STORAGE =           0.1834
       CONSTANT HEAD =           0.0000         CONSTANT HEAD =           0.0000
       RIVER LEAKAGE =           5.8669         RIVER LEAKAGE =           0.0000
            RECHARGE =         592.0000              RECHARGE =          13.0000

            TOTAL IN =        1389.1152              TOTAL IN =          13.1834

          OUT:                                     OUT:
          ----                                     ----
             STORAGE =         479.1413               STORAGE =           9.5824
       CONSTANT HEAD =         160.1361         CONSTANT HEAD =           3.2306
       RIVER LEAKAGE =         162.3383         RIVER LEAKAGE =           0.3705
            RECHARGE =         587.5000              RECHARGE =           0.0000

           TOTAL OUT =        1389.1156             TOTAL OUT =          13.1834

            IN - OUT =      -3.6621E-04              IN - OUT =       1.9073E-06

 PERCENT DISCREPANCY =          -0.00     PERCENT DISCREPANCY =           0.00






         TIME SUMMARY AT END OF TIME STEP    1 IN STRESS PERIOD   49
                    SECONDS     MINUTES      HOURS       DAYS        YEARS
                    -----------------------------------------------------------
   TIME STEP LENGTH  86400.      1440.0      24.000      1.0000     2.73785E-03
 STRESS PERIOD TIME  86400.      1440.0      24.000      1.0000     2.73785E-03
         TOTAL TIME 4.23360E+06  70560.      1176.0      49.000     0.13415    
1
1
                            STRESS PERIOD NO.   50, LENGTH =   1.000000    
                            -----------------------------------------------

                              NUMBER OF TIME STEPS =     1

                               MULTIPLIER FOR DELT =     1.000

                            INITIAL TIME STEP SIZE =   1.000000    

 REUSING NON-PARAMETER RIVER REACHES FROM LAST STRESS PERIOD

      2 RIVER REACHES

                 RECHARGE =  6.400000E-03
 
 SOLVING FOR HEAD 

 OUTPUT CONTROL FOR STRESS PERIOD   50   TIME STEP    1
    SAVE HEAD FOR ALL LAYERS

 HEAD WILL BE SAVED ON UNIT   51 AT END OF TIME STEP    1, STRESS PERIOD   50
1
  VOLUMETRIC BUDGET FOR ENTIRE MODEL AT END OF TIME STEP    1, STRESS PERIOD  50
  ------------------------------------------------------------------------------

     CUMULATIVE VOLUMES      L**3       RATES FOR THIS TIME STEP      L**3/T
     ------------------                 ------------------------

           IN:                                      IN:
           ---                                      ---
             STORAGE =         791.3926               STORAGE =           0.1443
       CONSTANT HEAD =           0.0000         CONSTANT HEAD =           0.0000
       RIVER LEAKAGE =           5.8669         RIVER LEAKAGE =           0.0000
            RECHARGE =         656.0000              RECHARGE =          64.0000

            TOTAL IN =        1453.2595              TOTAL IN =          64.1443

          OUT:                                     OUT:
          ----                                     ----
             STORAGE =         537.5525               STORAGE =          58.4112
       CONSTANT HEAD =         163.3665         CONSTANT HEAD =           3.2304
       RIVER LEAKAGE =         164.8410         RIVER LEAKAGE =           2.5027
            RECHARGE =         587.5000              RECHARGE =           0.0000

           TOTAL OUT =        1453.2600             TOTAL OUT =          64.1444

            IN - OUT =      -4.8828E-04              IN - OUT =      -1.2207E-04

 PERCENT DISCREPANCY =          -0.00     PERCENT DISCREPANCY =          -0.00






         TIME SUMMARY AT END OF TIME STEP    1 IN STRESS PERIOD   50
                    SECONDS     MINUTES      HOURS       DAYS        YEARS
                    -----------------------------------------------------------
   TIME STEP LENGTH  86400.      1440.0      24.000      1.0000     2.73785E-03
 STRESS PERIOD TIME  86400.      1440.0      24.000      1.0000     2.73785E-03
         TOTAL TIME 4.32000E+06  72000.      1200.0      50.000     0.13689    
1
1
                            STRESS PERIOD NO.   51, LENGTH =   1.000000    
                            -----------------------------------------------

                              NUMBER OF TIME STEPS =     1

                               MULTIPLIER FOR DELT =     1.000

                            INITIAL TIME STEP SIZE =   1.000000    

 REUSING NON-PARAMETER RIVER REACHES FROM LAST STRESS PERIOD

      2 RIVER REACHES

                 RECHARGE = -2.275000E-03
 
 SOLVING FOR HEAD 

 OUTPUT CONTROL FOR STRESS PERIOD   51   TIME STEP    1
    SAVE HEAD FOR ALL LAYERS

 HEAD WILL BE SAVED ON UNIT   51 AT END OF TIME STEP    1, STRESS PERIOD   51
1
  VOLUMETRIC BUDGET FOR ENTIRE MODEL AT END OF TIME STEP    1, STRESS PERIOD  51
  ------------------------------------------------------------------------------

     CUMULATIVE VOLUMES      L**3       RATES FOR THIS TIME STEP      L**3/T
     ------------------                 ------------------------

           IN:                                      IN:
           ---                                      ---
             STORAGE =         818.2386               STORAGE =          26.8460
       CONSTANT HEAD =           0.0000         CONSTANT HEAD =           0.0000
       RIVER LEAKAGE =           5.8669         RIVER LEAKAGE =           0.0000
            RECHARGE =         656.0000              RECHARGE =           0.0000

            TOTAL IN =        1480.1056              TOTAL IN =          26.8460

          OUT:                                     OUT:
          ----                                     ----
             STORAGE =         537.5525               STORAGE =           0.0000
       CONSTANT HEAD =         166.5948         CONSTANT HEAD =           3.2283
       RIVER LEAKAGE =         165.7089         RIVER LEAKAGE =           0.8679
            RECHARGE =         610.2500              RECHARGE =          22.7500

           TOTAL OUT =        1480.1062             TOTAL OUT =          26.8462

            IN - OUT =      -6.1035E-04              IN - OUT =      -1.3733E-04

 PERCENT DISCREPANCY =          -0.00     PERCENT DISCREPANCY =          -0.00






         TIME SUMMARY AT END OF TIME STEP    1 IN STRESS PERIOD   51
                    SECONDS     MINUTES      HOURS       DAYS        YEARS
                    -----------------------------------------------------------
   TIME STEP LENGTH  86400.      1440.0      24.000      1.0000     2.73785E-03
 STRESS PERIOD TIME  86400.      1440.0      24.000      1.0000     2.73785E-03
         TOTAL TIME 4.40640E+06  73440.      1224.0      51.000     0.13963    
1
1
                            STRESS PERIOD NO.   52, LENGTH =   1.000000    
                            -----------------------------------------------

                              NUMBER OF TIME STEPS =     1

                               MULTIPLIER FOR DELT =     1.000

                            INITIAL TIME STEP SIZE =   1.000000    

 REUSING NON-PARAMETER RIVER REACHES FROM LAST STRESS PERIOD

      2 RIVER REACHES

                 RECHARGE = -1.900000E-03
 
 SOLVING FOR HEAD 

 OUTPUT CONTROL FOR STRESS PERIOD   52   TIME STEP    1
    SAVE HEAD FOR ALL LAYERS

 HEAD WILL BE SAVED ON UNIT   51 AT END OF TIME STEP    1, STRESS PERIOD   52
1
  VOLUMETRIC BUDGET FOR ENTIRE MODEL AT END OF TIME STEP    1, STRESS PERIOD  52
  ------------------------------------------------------------------------------

     CUMULATIVE VOLUMES      L**3       RATES FOR THIS TIME STEP      L**3/T
     ------------------                 ------------------------

           IN:                                      IN:
           ---                                      ---
             STORAGE =         840.6757               STORAGE =          22.4370
       CONSTANT HEAD =           0.0000         CONSTANT HEAD =           0.0000
       RIVER LEAKAGE =           5.8669         RIVER LEAKAGE =           0.0000
            RECHARGE =         656.0000              RECHARGE =           0.0000

            TOTAL IN =        1502.5427              TOTAL IN =          22.4370

          OUT:                                     OUT:
          ----                                     ----
             STORAGE =         537.5525               STORAGE =           0.0000
       CONSTANT HEAD =         169.8204         CONSTANT HEAD =           3.2256
       RIVER LEAKAGE =         165.9203         RIVER LEAKAGE =           0.2113
            RECHARGE =         629.2500              RECHARGE =          19.0000

           TOTAL OUT =        1502.5432             TOTAL OUT =          22.4370

            IN - OUT =      -4.8828E-04              IN - OUT =       7.6294E-05

 PERCENT DISCREPANCY =          -0.00     PERCENT DISCREPANCY =           0.00






         TIME SUMMARY AT END OF TIME STEP    1 IN STRESS PERIOD   52
                    SECONDS     MINUTES      HOURS       DAYS        YEARS
                    -----------------------------------------------------------
   TIME STEP LENGTH  86400.      1440.0      24.000      1.0000     2.73785E-03
 STRESS PERIOD TIME  86400.      1440.0      24.000      1.0000     2.73785E-03
         TOTAL TIME 4.49280E+06  74880.      1248.0      52.000     0.14237    
1
1
                            STRESS PERIOD NO.   53, LENGTH =   1.000000    
                            -----------------------------------------------

                              NUMBER OF TIME STEPS =     1

                               MULTIPLIER FOR DELT =     1.000

                            INITIAL TIME STEP SIZE =   1.000000    

 REUSING NON-PARAMETER RIVER REACHES FROM LAST STRESS PERIOD

      2 RIVER REACHES

                 RECHARGE = -2.900000E-03
 
 SOLVING FOR HEAD 

 OUTPUT CONTROL FOR STRESS PERIOD   53   TIME STEP    1
    SAVE HEAD FOR ALL LAYERS

 HEAD WILL BE SAVED ON UNIT   51 AT END OF TIME STEP    1, STRESS PERIOD   53
1
  VOLUMETRIC BUDGET FOR ENTIRE MODEL AT END OF TIME STEP    1, STRESS PERIOD  53
  ------------------------------------------------------------------------------

     CUMULATIVE VOLUMES      L**3       RATES FOR THIS TIME STEP      L**3/T
     ------------------                 ------------------------

           IN:                                      IN:
           ---                                      ---
             STORAGE =         872.3138               STORAGE =          31.6381
       CONSTANT HEAD =           0.0000         CONSTANT HEAD =           0.0000
       RIVER LEAKAGE =           6.4510         RIVER LEAKAGE =           0.5840
            RECHARGE =         656.0000              RECHARGE =           0.0000

            TOTAL IN =        1534.7649              TOTAL IN =          32.2221

          OUT:                                     OUT:
          ----                                     ----
             STORAGE =         537.5525               STORAGE =           0.0000
       CONSTANT HEAD =         173.0428         CONSTANT HEAD =           3.2223
       RIVER LEAKAGE =         165.9203         RIVER LEAKAGE =           0.0000
            RECHARGE =         658.2500              RECHARGE =          29.0000

           TOTAL OUT =        1534.7655             TOTAL OUT =          32.2223

            IN - OUT =      -6.1035E-04              IN - OUT =      -2.0599E-04

 PERCENT DISCREPANCY =          -0.00     PERCENT DISCREPANCY =          -0.00






         TIME SUMMARY AT END OF TIME STEP    1 IN STRESS PERIOD   53
                    SECONDS     MINUTES      HOURS       DAYS        YEARS
                    -----------------------------------------------------------
   TIME STEP LENGTH  86400.      1440.0      24.000      1.0000     2.73785E-03
 STRESS PERIOD TIME  86400.      1440.0      24.000      1.0000     2.73785E-03
         TOTAL TIME 4.57920E+06  76320.      1272.0      53.000     0.14511    
1
1
                            STRESS PERIOD NO.   54, LENGTH =   1.000000    
                            -----------------------------------------------

                              NUMBER OF TIME STEPS =     1

                               MULTIPLIER FOR DELT =     1.000

                            INITIAL TIME STEP SIZE =   1.000000    

 REUSING NON-PARAMETER RIVER REACHES FROM LAST STRESS PERIOD

      2 RIVER REACHES

                 RECHARGE = -7.000000E-04
 
 SOLVING FOR HEAD 

 OUTPUT CONTROL FOR STRESS PERIOD   54   TIME STEP    1
    SAVE HEAD FOR ALL LAYERS

 HEAD WILL BE SAVED ON UNIT   51 AT END OF TIME STEP    1, STRESS PERIOD   54
1
  VOLUMETRIC BUDGET FOR ENTIRE MODEL AT END OF TIME STEP    1, STRESS PERIOD  54
  ------------------------------------------------------------------------------

     CUMULATIVE VOLUMES      L**3       RATES FOR THIS TIME STEP      L**3/T
     ------------------                 ------------------------

           IN:                                      IN:
           ---                                      ---
             STORAGE =         882.2493               STORAGE =           9.9355
       CONSTANT HEAD =           0.0000         CONSTANT HEAD =           0.0000
       RIVER LEAKAGE =           6.8313         RIVER LEAKAGE =           0.3803
            RECHARGE =         656.0000              RECHARGE =           0.0000

            TOTAL IN =        1545.0806              TOTAL IN =          10.3158

          OUT:                                     OUT:
          ----                                     ----
             STORAGE =         537.6489               STORAGE =       9.6413E-02
       CONSTANT HEAD =         176.2622         CONSTANT HEAD =           3.2194
       RIVER LEAKAGE =         165.9203         RIVER LEAKAGE =           0.0000
            RECHARGE =         665.2500              RECHARGE =           7.0000

           TOTAL OUT =        1545.0814             TOTAL OUT =          10.3158

            IN - OUT =      -8.5449E-04              IN - OUT =      -4.7684E-06

 PERCENT DISCREPANCY =          -0.00     PERCENT DISCREPANCY =          -0.00






         TIME SUMMARY AT END OF TIME STEP    1 IN STRESS PERIOD   54
                    SECONDS     MINUTES      HOURS       DAYS        YEARS
                    -----------------------------------------------------------
   TIME STEP LENGTH  86400.      1440.0      24.000      1.0000     2.73785E-03
 STRESS PERIOD TIME  86400.      1440.0      24.000      1.0000     2.73785E-03
         TOTAL TIME 4.66560E+06  77760.      1296.0      54.000     0.14784    
1
1
                            STRESS PERIOD NO.   55, LENGTH =   1.000000    
                            -----------------------------------------------

                              NUMBER OF TIME STEPS =     1

                               MULTIPLIER FOR DELT =     1.000

                            INITIAL TIME STEP SIZE =   1.000000    

 REUSING NON-PARAMETER RIVER REACHES FROM LAST STRESS PERIOD

      2 RIVER REACHES

                 RECHARGE = -1.500000E-03
 
 SOLVING FOR HEAD 

 OUTPUT CONTROL FOR STRESS PERIOD   55   TIME STEP    1
    SAVE HEAD FOR ALL LAYERS

 HEAD WILL BE SAVED ON UNIT   51 AT END OF TIME STEP    1, STRESS PERIOD   55
1
  VOLUMETRIC BUDGET FOR ENTIRE MODEL AT END OF TIME STEP    1, STRESS PERIOD  55
  ------------------------------------------------------------------------------

     CUMULATIVE VOLUMES      L**3       RATES FOR THIS TIME STEP      L**3/T
     ------------------                 ------------------------

           IN:                                      IN:
           ---                                      ---
             STORAGE =         899.8275               STORAGE =          17.5781
       CONSTANT HEAD =           0.0000         CONSTANT HEAD =           0.0000
       RIVER LEAKAGE =           7.4693         RIVER LEAKAGE =           0.6380
            RECHARGE =         656.0000              RECHARGE =           0.0000

            TOTAL IN =        1563.2968              TOTAL IN =          18.2162

          OUT:                                     OUT:
          ----                                     ----
             STORAGE =         537.6489               STORAGE =           0.0000
       CONSTANT HEAD =         179.4784         CONSTANT HEAD =           3.2163
       RIVER LEAKAGE =         165.9203         RIVER LEAKAGE =           0.0000
            RECHARGE =         680.2500              RECHARGE =          15.0000

           TOTAL OUT =        1563.2976             TOTAL OUT =          18.2163

            IN - OUT =      -8.5449E-04              IN - OUT =      -9.3460E-05

 PERCENT DISCREPANCY =          -0.00     PERCENT DISCREPANCY =          -0.00






         TIME SUMMARY AT END OF TIME STEP    1 IN STRESS PERIOD   55
                    SECONDS     MINUTES      HOURS       DAYS        YEARS
                    -----------------------------------------------------------
   TIME STEP LENGTH  86400.      1440.0      24.000      1.0000     2.73785E-03
 STRESS PERIOD TIME  86400.      1440.0      24.000      1.0000     2.73785E-03
         TOTAL TIME 4.75200E+06  79200.      1320.0      55.000     0.15058    
1
1
                            STRESS PERIOD NO.   56, LENGTH =   1.000000    
                            -----------------------------------------------

                              NUMBER OF TIME STEPS =     1

                               MULTIPLIER FOR DELT =     1.000

                            INITIAL TIME STEP SIZE =   1.000000    

 REUSING NON-PARAMETER RIVER REACHES FROM LAST STRESS PERIOD

      2 RIVER REACHES

                 RECHARGE = -1.700000E-03
 
 SOLVING FOR HEAD 

 OUTPUT CONTROL FOR STRESS PERIOD   56   TIME STEP    1
    SAVE HEAD FOR ALL LAYERS

 HEAD WILL BE SAVED ON UNIT   51 AT END OF TIME STEP    1, STRESS PERIOD   56
1
  VOLUMETRIC BUDGET FOR ENTIRE MODEL AT END OF TIME STEP    1, STRESS PERIOD  56
  ------------------------------------------------------------------------------

     CUMULATIVE VOLUMES      L**3       RATES FOR THIS TIME STEP      L**3/T
     ------------------                 ------------------------

           IN:                                      IN:
           ---                                      ---
             STORAGE =         919.1359               STORAGE =          19.3085
       CONSTANT HEAD =           0.0000         CONSTANT HEAD =           0.0000
       RIVER LEAKAGE =           8.3740         RIVER LEAKAGE =           0.9047
            RECHARGE =         656.0000              RECHARGE =           0.0000

            TOTAL IN =        1583.5099              TOTAL IN =          20.2131

          OUT:                                     OUT:
          ----                                     ----
             STORAGE =         537.6489               STORAGE =           0.0000
       CONSTANT HEAD =         182.6913         CONSTANT HEAD =           3.2129
       RIVER LEAKAGE =         165.9203         RIVER LEAKAGE =           0.0000
            RECHARGE =         697.2500              RECHARGE =          17.0000

           TOTAL OUT =        1583.5105             TOTAL OUT =          20.2129

            IN - OUT =      -6.1035E-04              IN - OUT =       2.3079E-04

 PERCENT DISCREPANCY =          -0.00     PERCENT DISCREPANCY =           0.00






         TIME SUMMARY AT END OF TIME STEP    1 IN STRESS PERIOD   56
                    SECONDS     MINUTES      HOURS       DAYS        YEARS
                    -----------------------------------------------------------
   TIME STEP LENGTH  86400.      1440.0      24.000      1.0000     2.73785E-03
 STRESS PERIOD TIME  86400.      1440.0      24.000      1.0000     2.73785E-03
         TOTAL TIME 4.83840E+06  80640.      1344.0      56.000     0.15332    
1
1
                            STRESS PERIOD NO.   57, LENGTH =   1.000000    
                            -----------------------------------------------

                              NUMBER OF TIME STEPS =     1

                               MULTIPLIER FOR DELT =     1.000

                            INITIAL TIME STEP SIZE =   1.000000    

 REUSING NON-PARAMETER RIVER REACHES FROM LAST STRESS PERIOD

      2 RIVER REACHES

                 RECHARGE =  1.300000E-03
 
 SOLVING FOR HEAD 

 OUTPUT CONTROL FOR STRESS PERIOD   57   TIME STEP    1
    SAVE HEAD FOR ALL LAYERS

 HEAD WILL BE SAVED ON UNIT   51 AT END OF TIME STEP    1, STRESS PERIOD   57
1
  VOLUMETRIC BUDGET FOR ENTIRE MODEL AT END OF TIME STEP    1, STRESS PERIOD  57
  ------------------------------------------------------------------------------

     CUMULATIVE VOLUMES      L**3       RATES FOR THIS TIME STEP      L**3/T
     ------------------                 ------------------------

           IN:                                      IN:
           ---                                      ---
             STORAGE =         919.3369               STORAGE =           0.2010
       CONSTANT HEAD =           0.0000         CONSTANT HEAD =           0.0000
       RIVER LEAKAGE =           8.4503         RIVER LEAKAGE =       7.6283E-02
            RECHARGE =         669.0000              RECHARGE =          13.0000

            TOTAL IN =        1596.7871              TOTAL IN =          13.2773

          OUT:                                     OUT:
          ----                                     ----
             STORAGE =         547.7158               STORAGE =          10.0669
       CONSTANT HEAD =         185.9017         CONSTANT HEAD =           3.2104
       RIVER LEAKAGE =         165.9203         RIVER LEAKAGE =           0.0000
            RECHARGE =         697.2500              RECHARGE =           0.0000

           TOTAL OUT =        1596.7878             TOTAL OUT =          13.2773

            IN - OUT =      -7.3242E-04              IN - OUT =      -2.5749E-05

 PERCENT DISCREPANCY =          -0.00     PERCENT DISCREPANCY =          -0.00






         TIME SUMMARY AT END OF TIME STEP    1 IN STRESS PERIOD   57
                    SECONDS     MINUTES      HOURS       DAYS        YEARS
                    -----------------------------------------------------------
   TIME STEP LENGTH  86400.      1440.0      24.000      1.0000     2.73785E-03
 STRESS PERIOD TIME  86400.      1440.0      24.000      1.0000     2.73785E-03
         TOTAL TIME 4.92480E+06  82080.      1368.0      57.000     0.15606    
1
1
                            STRESS PERIOD NO.   58, LENGTH =   1.000000    
                            -----------------------------------------------

                              NUMBER OF TIME STEPS =     1

                               MULTIPLIER FOR DELT =     1.000

                            INITIAL TIME STEP SIZE =   1.000000    

 REUSING NON-PARAMETER RIVER REACHES FROM LAST STRESS PERIOD

      2 RIVER REACHES

                 RECHARGE = -4.000000E-04
 
 SOLVING FOR HEAD 

 OUTPUT CONTROL FOR STRESS PERIOD   58   TIME STEP    1
    SAVE HEAD FOR ALL LAYERS

 HEAD WILL BE SAVED ON UNIT   51 AT END OF TIME STEP    1, STRESS PERIOD   58
1
  VOLUMETRIC BUDGET FOR ENTIRE MODEL AT END OF TIME STEP    1, STRESS PERIOD  58
  ------------------------------------------------------------------------------

     CUMULATIVE VOLUMES      L**3       RATES FOR THIS TIME STEP      L**3/T
     ------------------                 ------------------------

           IN:                                      IN:
           ---                                      ---
             STORAGE =         926.3345               STORAGE =           6.9976
       CONSTANT HEAD =           0.0000         CONSTANT HEAD =           0.0000
       RIVER LEAKAGE =           8.6605         RIVER LEAKAGE =           0.2103
            RECHARGE =         669.0000              RECHARGE =           0.0000

            TOTAL IN =        1603.9951              TOTAL IN =           7.2079

          OUT:                                     OUT:
          ----                                     ----
             STORAGE =         547.7158               STORAGE =           0.0000
       CONSTANT HEAD =         189.1095         CONSTANT HEAD =           3.2077
       RIVER LEAKAGE =         165.9203         RIVER LEAKAGE =           0.0000
            RECHARGE =         701.2500              RECHARGE =           4.0000

           TOTAL OUT =        1603.9955             TOTAL OUT =           7.2077

            IN - OUT =      -3.6621E-04              IN - OUT =       1.8311E-04

 PERCENT DISCREPANCY =          -0.00     PERCENT DISCREPANCY =           0.00






         TIME SUMMARY AT END OF TIME STEP    1 IN STRESS PERIOD   58
                    SECONDS     MINUTES      HOURS       DAYS        YEARS
                    -----------------------------------------------------------
   TIME STEP LENGTH  86400.      1440.0      24.000      1.0000     2.73785E-03
 STRESS PERIOD TIME  86400.      1440.0      24.000      1.0000     2.73785E-03
         TOTAL TIME 5.01120E+06  83520.      1392.0      58.000     0.15880    
1
1
                            STRESS PERIOD NO.   59, LENGTH =   1.000000    
                            -----------------------------------------------

                              NUMBER OF TIME STEPS =     1

                               MULTIPLIER FOR DELT =     1.000

                            INITIAL TIME STEP SIZE =   1.000000    

 REUSING NON-PARAMETER RIVER REACHES FROM LAST STRESS PERIOD

      2 RIVER REACHES

                 RECHARGE = -2.000000E-03
 
 SOLVING FOR HEAD 

 OUTPUT CONTROL FOR STRESS PERIOD   59   TIME STEP    1
    SAVE HEAD FOR ALL LAYERS

 HEAD WILL BE SAVED ON UNIT   51 AT END OF TIME STEP    1, STRESS PERIOD   59
1
  VOLUMETRIC BUDGET FOR ENTIRE MODEL AT END OF TIME STEP    1, STRESS PERIOD  59
  ------------------------------------------------------------------------------

     CUMULATIVE VOLUMES      L**3       RATES FOR THIS TIME STEP      L**3/T
     ------------------                 ------------------------

           IN:                                      IN:
           ---                                      ---
             STORAGE =         948.7297               STORAGE =          22.3952
       CONSTANT HEAD =           0.0000         CONSTANT HEAD =           0.0000
       RIVER LEAKAGE =           9.4697         RIVER LEAKAGE =           0.8092
            RECHARGE =         669.0000              RECHARGE =           0.0000

            TOTAL IN =        1627.1995              TOTAL IN =          23.2044

          OUT:                                     OUT:
          ----                                     ----
             STORAGE =         547.7158               STORAGE =           0.0000
       CONSTANT HEAD =         192.3138         CONSTANT HEAD =           3.2044
       RIVER LEAKAGE =         165.9203         RIVER LEAKAGE =           0.0000
            RECHARGE =         721.2500              RECHARGE =          20.0000

           TOTAL OUT =        1627.2000             TOTAL OUT =          23.2044

            IN - OUT =      -4.8828E-04              IN - OUT =      -3.6240E-05

 PERCENT DISCREPANCY =          -0.00     PERCENT DISCREPANCY =          -0.00






         TIME SUMMARY AT END OF TIME STEP    1 IN STRESS PERIOD   59
                    SECONDS     MINUTES      HOURS       DAYS        YEARS
                    -----------------------------------------------------------
   TIME STEP LENGTH  86400.      1440.0      24.000      1.0000     2.73785E-03
 STRESS PERIOD TIME  86400.      1440.0      24.000      1.0000     2.73785E-03
         TOTAL TIME 5.09760E+06  84960.      1416.0      59.000     0.16153    
1
1
                            STRESS PERIOD NO.   60, LENGTH =   1.000000    
                            -----------------------------------------------

                              NUMBER OF TIME STEPS =     1

                               MULTIPLIER FOR DELT =     1.000

                            INITIAL TIME STEP SIZE =   1.000000    

 REUSING NON-PARAMETER RIVER REACHES FROM LAST STRESS PERIOD

      2 RIVER REACHES

                 RECHARGE = -2.300000E-03
 
 SOLVING FOR HEAD 

 OUTPUT CONTROL FOR STRESS PERIOD   60   TIME STEP    1
    SAVE HEAD FOR ALL LAYERS

 HEAD WILL BE SAVED ON UNIT   51 AT END OF TIME STEP    1, STRESS PERIOD   60
1
  VOLUMETRIC BUDGET FOR ENTIRE MODEL AT END OF TIME STEP    1, STRESS PERIOD  60
  ------------------------------------------------------------------------------

     CUMULATIVE VOLUMES      L**3       RATES FOR THIS TIME STEP      L**3/T
     ------------------                 ------------------------

           IN:                                      IN:
           ---                                      ---
             STORAGE =         973.6437               STORAGE =          24.9141
       CONSTANT HEAD =           0.0000         CONSTANT HEAD =           0.0000
       RIVER LEAKAGE =          10.7561         RIVER LEAKAGE =           1.2864
            RECHARGE =         669.0000              RECHARGE =           0.0000

            TOTAL IN =        1653.3999              TOTAL IN =          26.2005

          OUT:                                     OUT:
          ----                                     ----
             STORAGE =         547.7158               STORAGE =           0.0000
       CONSTANT HEAD =         195.5145         CONSTANT HEAD =           3.2007
       RIVER LEAKAGE =         165.9203         RIVER LEAKAGE =           0.0000
            RECHARGE =         744.2500              RECHARGE =          23.0000

           TOTAL OUT =        1653.4006             TOTAL OUT =          26.2007

            IN - OUT =      -7.3242E-04              IN - OUT =      -2.2316E-04

 PERCENT DISCREPANCY =          -0.00     PERCENT DISCREPANCY =          -0.00






         TIME SUMMARY AT END OF TIME STEP    1 IN STRESS PERIOD   60
                    SECONDS     MINUTES      HOURS       DAYS        YEARS
                    -----------------------------------------------------------
   TIME STEP LENGTH  86400.      1440.0      24.000      1.0000     2.73785E-03
 STRESS PERIOD TIME  86400.      1440.0      24.000      1.0000     2.73785E-03
         TOTAL TIME 5.18400E+06  86400.      1440.0      60.000     0.16427    
1
1
                            STRESS PERIOD NO.   61, LENGTH =   1.000000    
                            -----------------------------------------------

                              NUMBER OF TIME STEPS =     1

                               MULTIPLIER FOR DELT =     1.000

                            INITIAL TIME STEP SIZE =   1.000000    

 REUSING NON-PARAMETER RIVER REACHES FROM LAST STRESS PERIOD

      2 RIVER REACHES

                 RECHARGE =  1.000000E-04
 
 SOLVING FOR HEAD 

 OUTPUT CONTROL FOR STRESS PERIOD   61   TIME STEP    1
    SAVE HEAD FOR ALL LAYERS

 HEAD WILL BE SAVED ON UNIT   51 AT END OF TIME STEP    1, STRESS PERIOD   61
1
  VOLUMETRIC BUDGET FOR ENTIRE MODEL AT END OF TIME STEP    1, STRESS PERIOD  61
  ------------------------------------------------------------------------------

     CUMULATIVE VOLUMES      L**3       RATES FOR THIS TIME STEP      L**3/T
     ------------------                 ------------------------

           IN:                                      IN:
           ---                                      ---
             STORAGE =         976.4502               STORAGE =           2.8064
       CONSTANT HEAD =           0.0000         CONSTANT HEAD =           0.0000
       RIVER LEAKAGE =          11.5632         RIVER LEAKAGE =           0.8071
            RECHARGE =         670.0000              RECHARGE =           1.0000

            TOTAL IN =        1658.0134              TOTAL IN =           4.6135

          OUT:                                     OUT:
          ----                                     ----
             STORAGE =         549.1317               STORAGE =           1.4159
       CONSTANT HEAD =         198.7122         CONSTANT HEAD =           3.1976
       RIVER LEAKAGE =         165.9203         RIVER LEAKAGE =           0.0000
            RECHARGE =         744.2500              RECHARGE =           0.0000

           TOTAL OUT =        1658.0142             TOTAL OUT =           4.6135

            IN - OUT =      -7.3242E-04              IN - OUT =       3.0041E-05

 PERCENT DISCREPANCY =          -0.00     PERCENT DISCREPANCY =           0.00






         TIME SUMMARY AT END OF TIME STEP    1 IN STRESS PERIOD   61
                    SECONDS     MINUTES      HOURS       DAYS        YEARS
                    -----------------------------------------------------------
   TIME STEP LENGTH  86400.      1440.0      24.000      1.0000     2.73785E-03
 STRESS PERIOD TIME  86400.      1440.0      24.000      1.0000     2.73785E-03
         TOTAL TIME 5.27040E+06  87840.      1464.0      61.000     0.16701    
1
1
                            STRESS PERIOD NO.   62, LENGTH =   1.000000    
                            -----------------------------------------------

                              NUMBER OF TIME STEPS =     1

                               MULTIPLIER FOR DELT =     1.000

                            INITIAL TIME STEP SIZE =   1.000000    

 REUSING NON-PARAMETER RIVER REACHES FROM LAST STRESS PERIOD

      2 RIVER REACHES

                 RECHARGE = -2.475000E-03
 
 SOLVING FOR HEAD 

 OUTPUT CONTROL FOR STRESS PERIOD   62   TIME STEP    1
    SAVE HEAD FOR ALL LAYERS

 HEAD WILL BE SAVED ON UNIT   51 AT END OF TIME STEP    1, STRESS PERIOD   62
1
  VOLUMETRIC BUDGET FOR ENTIRE MODEL AT END OF TIME STEP    1, STRESS PERIOD  62
  ------------------------------------------------------------------------------

     CUMULATIVE VOLUMES      L**3       RATES FOR THIS TIME STEP      L**3/T
     ------------------                 ------------------------

           IN:                                      IN:
           ---                                      ---
             STORAGE =        1002.9116               STORAGE =          26.4614
       CONSTANT HEAD =           0.0000         CONSTANT HEAD =           0.0000
       RIVER LEAKAGE =          13.0458         RIVER LEAKAGE =           1.4826
            RECHARGE =         670.0000              RECHARGE =           0.0000

            TOTAL IN =        1685.9575              TOTAL IN =          27.9440

          OUT:                                     OUT:
          ----                                     ----
             STORAGE =         549.1317               STORAGE =           0.0000
       CONSTANT HEAD =         201.9060         CONSTANT HEAD =           3.1938
       RIVER LEAKAGE =         165.9203         RIVER LEAKAGE =           0.0000
            RECHARGE =         769.0000              RECHARGE =          24.7500

           TOTAL OUT =        1685.9579             TOTAL OUT =          27.9438

            IN - OUT =      -3.6621E-04              IN - OUT =       2.1935E-04

 PERCENT DISCREPANCY =          -0.00     PERCENT DISCREPANCY =           0.00






         TIME SUMMARY AT END OF TIME STEP    1 IN STRESS PERIOD   62
                    SECONDS     MINUTES      HOURS       DAYS        YEARS
                    -----------------------------------------------------------
   TIME STEP LENGTH  86400.      1440.0      24.000      1.0000     2.73785E-03
 STRESS PERIOD TIME  86400.      1440.0      24.000      1.0000     2.73785E-03
         TOTAL TIME 5.35680E+06  89280.      1488.0      62.000     0.16975    
1
1
                            STRESS PERIOD NO.   63, LENGTH =   1.000000    
                            -----------------------------------------------

                              NUMBER OF TIME STEPS =     1

                               MULTIPLIER FOR DELT =     1.000

                            INITIAL TIME STEP SIZE =   1.000000    

 REUSING NON-PARAMETER RIVER REACHES FROM LAST STRESS PERIOD

      2 RIVER REACHES

                 RECHARGE = -3.600000E-03
 
 SOLVING FOR HEAD 

 OUTPUT CONTROL FOR STRESS PERIOD   63   TIME STEP    1
    SAVE HEAD FOR ALL LAYERS

 HEAD WILL BE SAVED ON UNIT   51 AT END OF TIME STEP    1, STRESS PERIOD   63
1
  VOLUMETRIC BUDGET FOR ENTIRE MODEL AT END OF TIME STEP    1, STRESS PERIOD  63
  ------------------------------------------------------------------------------

     CUMULATIVE VOLUMES      L**3       RATES FOR THIS TIME STEP      L**3/T
     ------------------                 ------------------------

           IN:                                      IN:
           ---                                      ---
             STORAGE =        1039.8071               STORAGE =          36.8956
       CONSTANT HEAD =           0.0000         CONSTANT HEAD =           0.0000
       RIVER LEAKAGE =          15.3393         RIVER LEAKAGE =           2.2935
            RECHARGE =         670.0000              RECHARGE =           0.0000

            TOTAL IN =        1725.1465              TOTAL IN =          39.1891

          OUT:                                     OUT:
          ----                                     ----
             STORAGE =         549.1317               STORAGE =           0.0000
       CONSTANT HEAD =         205.0953         CONSTANT HEAD =           3.1893
       RIVER LEAKAGE =         165.9203         RIVER LEAKAGE =           0.0000
            RECHARGE =         805.0000              RECHARGE =          36.0000

           TOTAL OUT =        1725.1472             TOTAL OUT =          39.1893

            IN - OUT =      -7.3242E-04              IN - OUT =      -2.2888E-04

 PERCENT DISCREPANCY =          -0.00     PERCENT DISCREPANCY =          -0.00






         TIME SUMMARY AT END OF TIME STEP    1 IN STRESS PERIOD   63
                    SECONDS     MINUTES      HOURS       DAYS        YEARS
                    -----------------------------------------------------------
   TIME STEP LENGTH  86400.      1440.0      24.000      1.0000     2.73785E-03
 STRESS PERIOD TIME  86400.      1440.0      24.000      1.0000     2.73785E-03
         TOTAL TIME 5.44320E+06  90720.      1512.0      63.000     0.17248    
1
1
                            STRESS PERIOD NO.   64, LENGTH =   1.000000    
                            -----------------------------------------------

                              NUMBER OF TIME STEPS =     1

                               MULTIPLIER FOR DELT =     1.000

                            INITIAL TIME STEP SIZE =   1.000000    

 REUSING NON-PARAMETER RIVER REACHES FROM LAST STRESS PERIOD

      2 RIVER REACHES

                 RECHARGE = -4.000000E-04
 
 SOLVING FOR HEAD 

 OUTPUT CONTROL FOR STRESS PERIOD   64   TIME STEP    1
    SAVE HEAD FOR ALL LAYERS

 HEAD WILL BE SAVED ON UNIT   51 AT END OF TIME STEP    1, STRESS PERIOD   64
1
  VOLUMETRIC BUDGET FOR ENTIRE MODEL AT END OF TIME STEP    1, STRESS PERIOD  64
  ------------------------------------------------------------------------------

     CUMULATIVE VOLUMES      L**3       RATES FOR THIS TIME STEP      L**3/T
     ------------------                 ------------------------

           IN:                                      IN:
           ---                                      ---
             STORAGE =        1046.1448               STORAGE =           6.3377
       CONSTANT HEAD =           0.0000         CONSTANT HEAD =           0.0000
       RIVER LEAKAGE =          17.0967         RIVER LEAKAGE =           1.7573
            RECHARGE =         670.0000              RECHARGE =           0.0000

            TOTAL IN =        1733.2415              TOTAL IN =           8.0950

          OUT:                                     OUT:
          ----                                     ----
             STORAGE =         550.0410               STORAGE =           0.9093
       CONSTANT HEAD =         208.2808         CONSTANT HEAD =           3.1855
       RIVER LEAKAGE =         165.9203         RIVER LEAKAGE =           0.0000
            RECHARGE =         809.0000              RECHARGE =           4.0000

           TOTAL OUT =        1733.2419             TOTAL OUT =           8.0948

            IN - OUT =      -4.8828E-04              IN - OUT =       2.1458E-04

 PERCENT DISCREPANCY =          -0.00     PERCENT DISCREPANCY =           0.00






         TIME SUMMARY AT END OF TIME STEP    1 IN STRESS PERIOD   64
                    SECONDS     MINUTES      HOURS       DAYS        YEARS
                    -----------------------------------------------------------
   TIME STEP LENGTH  86400.      1440.0      24.000      1.0000     2.73785E-03
 STRESS PERIOD TIME  86400.      1440.0      24.000      1.0000     2.73785E-03
         TOTAL TIME 5.52960E+06  92160.      1536.0      64.000     0.17522    
1
1
                            STRESS PERIOD NO.   65, LENGTH =   1.000000    
                            -----------------------------------------------

                              NUMBER OF TIME STEPS =     1

                               MULTIPLIER FOR DELT =     1.000

                            INITIAL TIME STEP SIZE =   1.000000    

 REUSING NON-PARAMETER RIVER REACHES FROM LAST STRESS PERIOD

      2 RIVER REACHES

                 RECHARGE =  3.300000E-03
 
 SOLVING FOR HEAD 

 OUTPUT CONTROL FOR STRESS PERIOD   65   TIME STEP    1
    SAVE HEAD FOR ALL LAYERS

 HEAD WILL BE SAVED ON UNIT   51 AT END OF TIME STEP    1, STRESS PERIOD   65
1
  VOLUMETRIC BUDGET FOR ENTIRE MODEL AT END OF TIME STEP    1, STRESS PERIOD  65
  ------------------------------------------------------------------------------

     CUMULATIVE VOLUMES      L**3       RATES FOR THIS TIME STEP      L**3/T
     ------------------                 ------------------------

           IN:                                      IN:
           ---                                      ---
             STORAGE =        1046.3790               STORAGE =           0.2343
       CONSTANT HEAD =           0.0000         CONSTANT HEAD =           0.0000
       RIVER LEAKAGE =          17.3508         RIVER LEAKAGE =           0.2541
            RECHARGE =         703.0000              RECHARGE =          33.0000

            TOTAL IN =        1766.7299              TOTAL IN =          33.4884

          OUT:                                     OUT:
          ----                                     ----
             STORAGE =         580.3461               STORAGE =          30.3052
       CONSTANT HEAD =         211.4640         CONSTANT HEAD =           3.1832
       RIVER LEAKAGE =         165.9203         RIVER LEAKAGE =           0.0000
            RECHARGE =         809.0000              RECHARGE =           0.0000

           TOTAL OUT =        1766.7303             TOTAL OUT =          33.4884

            IN - OUT =      -4.8828E-04              IN - OUT =       3.4332E-05

 PERCENT DISCREPANCY =          -0.00     PERCENT DISCREPANCY =           0.00






         TIME SUMMARY AT END OF TIME STEP    1 IN STRESS PERIOD   65
                    SECONDS     MINUTES      HOURS       DAYS        YEARS
                    -----------------------------------------------------------
   TIME STEP LENGTH  86400.      1440.0      24.000      1.0000     2.73785E-03
 STRESS PERIOD TIME  86400.      1440.0      24.000      1.0000     2.73785E-03
         TOTAL TIME 5.61600E+06  93600.      1560.0      65.000     0.17796    
1
1
                            STRESS PERIOD NO.   66, LENGTH =   1.000000    
                            -----------------------------------------------

                              NUMBER OF TIME STEPS =     1

                               MULTIPLIER FOR DELT =     1.000

                            INITIAL TIME STEP SIZE =   1.000000    

 REUSING NON-PARAMETER RIVER REACHES FROM LAST STRESS PERIOD

      2 RIVER REACHES

                 RECHARGE =  2.200000E-03
 
 SOLVING FOR HEAD 

 OUTPUT CONTROL FOR STRESS PERIOD   66   TIME STEP    1
    SAVE HEAD FOR ALL LAYERS

 HEAD WILL BE SAVED ON UNIT   51 AT END OF TIME STEP    1, STRESS PERIOD   66
1
  VOLUMETRIC BUDGET FOR ENTIRE MODEL AT END OF TIME STEP    1, STRESS PERIOD  66
  ------------------------------------------------------------------------------

     CUMULATIVE VOLUMES      L**3       RATES FOR THIS TIME STEP      L**3/T
     ------------------                 ------------------------

           IN:                                      IN:
           ---                                      ---
             STORAGE =        1046.5986               STORAGE =           0.2196
       CONSTANT HEAD =           0.0000         CONSTANT HEAD =           0.0000
       RIVER LEAKAGE =          17.3508         RIVER LEAKAGE =           0.0000
            RECHARGE =         725.0000              RECHARGE =          22.0000

            TOTAL IN =        1788.9495              TOTAL IN =          22.2196

          OUT:                                     OUT:
          ----                                     ----
             STORAGE =         599.1025               STORAGE =          18.7564
       CONSTANT HEAD =         214.6451         CONSTANT HEAD =           3.1812
       RIVER LEAKAGE =         166.2022         RIVER LEAKAGE =           0.2819
            RECHARGE =         809.0000              RECHARGE =           0.0000

           TOTAL OUT =        1788.9498             TOTAL OUT =          22.2195

            IN - OUT =      -3.6621E-04              IN - OUT =       1.1635E-04

 PERCENT DISCREPANCY =          -0.00     PERCENT DISCREPANCY =           0.00






         TIME SUMMARY AT END OF TIME STEP    1 IN STRESS PERIOD   66
                    SECONDS     MINUTES      HOURS       DAYS        YEARS
                    -----------------------------------------------------------
   TIME STEP LENGTH  86400.      1440.0      24.000      1.0000     2.73785E-03
 STRESS PERIOD TIME  86400.      1440.0      24.000      1.0000     2.73785E-03
         TOTAL TIME 5.70240E+06  95040.      1584.0      66.000     0.18070    
1
1
                            STRESS PERIOD NO.   67, LENGTH =   1.000000    
                            -----------------------------------------------

                              NUMBER OF TIME STEPS =     1

                               MULTIPLIER FOR DELT =     1.000

                            INITIAL TIME STEP SIZE =   1.000000    

 REUSING NON-PARAMETER RIVER REACHES FROM LAST STRESS PERIOD

      2 RIVER REACHES

                 RECHARGE = -2.075000E-03
 
 SOLVING FOR HEAD 

 OUTPUT CONTROL FOR STRESS PERIOD   67   TIME STEP    1
    SAVE HEAD FOR ALL LAYERS

 HEAD WILL BE SAVED ON UNIT   51 AT END OF TIME STEP    1, STRESS PERIOD   67
1
  VOLUMETRIC BUDGET FOR ENTIRE MODEL AT END OF TIME STEP    1, STRESS PERIOD  67
  ------------------------------------------------------------------------------

     CUMULATIVE VOLUMES      L**3       RATES FOR THIS TIME STEP      L**3/T
     ------------------                 ------------------------

           IN:                                      IN:
           ---                                      ---
             STORAGE =        1069.7733               STORAGE =          23.1746
       CONSTANT HEAD =           0.0000         CONSTANT HEAD =           0.0000
       RIVER LEAKAGE =          18.1042         RIVER LEAKAGE =           0.7534
            RECHARGE =         725.0000              RECHARGE =           0.0000

            TOTAL IN =        1812.8774              TOTAL IN =          23.9280

          OUT:                                     OUT:
          ----                                     ----
             STORAGE =         599.1025               STORAGE =           0.0000
       CONSTANT HEAD =         217.8231         CONSTANT HEAD =           3.1779
       RIVER LEAKAGE =         166.2022         RIVER LEAKAGE =           0.0000
            RECHARGE =         829.7500              RECHARGE =          20.7500

           TOTAL OUT =        1812.8777             TOTAL OUT =          23.9279

            IN - OUT =      -2.4414E-04              IN - OUT =       7.8201E-05

 PERCENT DISCREPANCY =          -0.00     PERCENT DISCREPANCY =           0.00






         TIME SUMMARY AT END OF TIME STEP    1 IN STRESS PERIOD   67
                    SECONDS     MINUTES      HOURS       DAYS        YEARS
                    -----------------------------------------------------------
   TIME STEP LENGTH  86400.      1440.0      24.000      1.0000     2.73785E-03
 STRESS PERIOD TIME  86400.      1440.0      24.000      1.0000     2.73785E-03
         TOTAL TIME 5.78880E+06  96480.      1608.0      67.000     0.18344    
1
1
                            STRESS PERIOD NO.   68, LENGTH =   1.000000    
                            -----------------------------------------------

                              NUMBER OF TIME STEPS =     1

                               MULTIPLIER FOR DELT =     1.000

                            INITIAL TIME STEP SIZE =   1.000000    

 REUSING NON-PARAMETER RIVER REACHES FROM LAST STRESS PERIOD

      2 RIVER REACHES

                 RECHARGE = -9.750000E-04
 
 SOLVING FOR HEAD 

 OUTPUT CONTROL FOR STRESS PERIOD   68   TIME STEP    1
    SAVE HEAD FOR ALL LAYERS

 HEAD WILL BE SAVED ON UNIT   51 AT END OF TIME STEP    1, STRESS PERIOD   68
1
  VOLUMETRIC BUDGET FOR ENTIRE MODEL AT END OF TIME STEP    1, STRESS PERIOD  68
  ------------------------------------------------------------------------------

     CUMULATIVE VOLUMES      L**3       RATES FOR THIS TIME STEP      L**3/T
     ------------------                 ------------------------

           IN:                                      IN:
           ---                                      ---
             STORAGE =        1081.7853               STORAGE =          12.0120
       CONSTANT HEAD =           0.0000         CONSTANT HEAD =           0.0000
       RIVER LEAKAGE =          19.0167         RIVER LEAKAGE =           0.9125
            RECHARGE =         725.0000              RECHARGE =           0.0000

            TOTAL IN =        1825.8020              TOTAL IN =          12.9245

          OUT:                                     OUT:
          ----                                     ----
             STORAGE =         599.1025               STORAGE =           0.0000
       CONSTANT HEAD =         220.9977         CONSTANT HEAD =           3.1747
       RIVER LEAKAGE =         166.2022         RIVER LEAKAGE =           0.0000
            RECHARGE =         839.5000              RECHARGE =           9.7500

           TOTAL OUT =        1825.8025             TOTAL OUT =          12.9247

            IN - OUT =      -4.8828E-04              IN - OUT =      -1.5736E-04

 PERCENT DISCREPANCY =          -0.00     PERCENT DISCREPANCY =          -0.00






         TIME SUMMARY AT END OF TIME STEP    1 IN STRESS PERIOD   68
                    SECONDS     MINUTES      HOURS       DAYS        YEARS
                    -----------------------------------------------------------
   TIME STEP LENGTH  86400.      1440.0      24.000      1.0000     2.73785E-03
 STRESS PERIOD TIME  86400.      1440.0      24.000      1.0000     2.73785E-03
         TOTAL TIME 5.87520E+06  97920.      1632.0      68.000     0.18617    
1
1
                            STRESS PERIOD NO.   69, LENGTH =   1.000000    
                            -----------------------------------------------

                              NUMBER OF TIME STEPS =     1

                               MULTIPLIER FOR DELT =     1.000

                            INITIAL TIME STEP SIZE =   1.000000    

 REUSING NON-PARAMETER RIVER REACHES FROM LAST STRESS PERIOD

      2 RIVER REACHES

                 RECHARGE = -3.800000E-03
 
 SOLVING FOR HEAD 

 OUTPUT CONTROL FOR STRESS PERIOD   69   TIME STEP    1
    SAVE HEAD FOR ALL LAYERS

 HEAD WILL BE SAVED ON UNIT   51 AT END OF TIME STEP    1, STRESS PERIOD   69
1
  VOLUMETRIC BUDGET FOR ENTIRE MODEL AT END OF TIME STEP    1, STRESS PERIOD  69
  ------------------------------------------------------------------------------

     CUMULATIVE VOLUMES      L**3       RATES FOR THIS TIME STEP      L**3/T
     ------------------                 ------------------------

           IN:                                      IN:
           ---                                      ---
             STORAGE =        1120.9160               STORAGE =          39.1307
       CONSTANT HEAD =           0.0000         CONSTANT HEAD =           0.0000
       RIVER LEAKAGE =          21.0565         RIVER LEAKAGE =           2.0397
            RECHARGE =         725.0000              RECHARGE =           0.0000

            TOTAL IN =        1866.9725              TOTAL IN =          41.1704

          OUT:                                     OUT:
          ----                                     ----
             STORAGE =         599.1025               STORAGE =           0.0000
       CONSTANT HEAD =         224.1681         CONSTANT HEAD =           3.1704
       RIVER LEAKAGE =         166.2022         RIVER LEAKAGE =           0.0000
            RECHARGE =         877.5000              RECHARGE =          38.0000

           TOTAL OUT =        1866.9728             TOTAL OUT =          41.1704

            IN - OUT =      -2.4414E-04              IN - OUT =       6.8665E-05

 PERCENT DISCREPANCY =          -0.00     PERCENT DISCREPANCY =           0.00






         TIME SUMMARY AT END OF TIME STEP    1 IN STRESS PERIOD   69
                    SECONDS     MINUTES      HOURS       DAYS        YEARS
                    -----------------------------------------------------------
   TIME STEP LENGTH  86400.      1440.0      24.000      1.0000     2.73785E-03
 STRESS PERIOD TIME  86400.      1440.0      24.000      1.0000     2.73785E-03
         TOTAL TIME 5.96160E+06  99360.      1656.0      69.000     0.18891    
1
1
                            STRESS PERIOD NO.   70, LENGTH =   1.000000    
                            -----------------------------------------------

                              NUMBER OF TIME STEPS =     1

                               MULTIPLIER FOR DELT =     1.000

                            INITIAL TIME STEP SIZE =   1.000000    

 REUSING NON-PARAMETER RIVER REACHES FROM LAST STRESS PERIOD

      2 RIVER REACHES

                 RECHARGE = -1.900000E-03
 
 SOLVING FOR HEAD 

 OUTPUT CONTROL FOR STRESS PERIOD   70   TIME STEP    1
    SAVE HEAD FOR ALL LAYERS

 HEAD WILL BE SAVED ON UNIT   51 AT END OF TIME STEP    1, STRESS PERIOD   70
1
  VOLUMETRIC BUDGET FOR ENTIRE MODEL AT END OF TIME STEP    1, STRESS PERIOD  70
  ------------------------------------------------------------------------------

     CUMULATIVE VOLUMES      L**3       RATES FOR THIS TIME STEP      L**3/T
     ------------------                 ------------------------

           IN:                                      IN:
           ---                                      ---
             STORAGE =        1140.9702               STORAGE =          20.0542
       CONSTANT HEAD =           0.0000         CONSTANT HEAD =           0.0000
       RIVER LEAKAGE =          23.1685         RIVER LEAKAGE =           2.1120
            RECHARGE =         725.0000              RECHARGE =           0.0000

            TOTAL IN =        1889.1387              TOTAL IN =          22.1663

          OUT:                                     OUT:
          ----                                     ----
             STORAGE =         599.1025               STORAGE =           0.0000
       CONSTANT HEAD =         227.3343         CONSTANT HEAD =           3.1662
       RIVER LEAKAGE =         166.2022         RIVER LEAKAGE =           0.0000
            RECHARGE =         896.5000              RECHARGE =          19.0000

           TOTAL OUT =        1889.1389             TOTAL OUT =          22.1662

            IN - OUT =      -2.4414E-04              IN - OUT =       5.7220E-05

 PERCENT DISCREPANCY =          -0.00     PERCENT DISCREPANCY =           0.00






         TIME SUMMARY AT END OF TIME STEP    1 IN STRESS PERIOD   70
                    SECONDS     MINUTES      HOURS       DAYS        YEARS
                    -----------------------------------------------------------
   TIME STEP LENGTH  86400.      1440.0      24.000      1.0000     2.73785E-03
 STRESS PERIOD TIME  86400.      1440.0      24.000      1.0000     2.73785E-03
         TOTAL TIME 6.04800E+06 1.00800E+05  1680.0      70.000     0.19165    
1
1
                            STRESS PERIOD NO.   71, LENGTH =   1.000000    
                            -----------------------------------------------

                              NUMBER OF TIME STEPS =     1

                               MULTIPLIER FOR DELT =     1.000

                            INITIAL TIME STEP SIZE =   1.000000    

 REUSING NON-PARAMETER RIVER REACHES FROM LAST STRESS PERIOD

      2 RIVER REACHES

                 RECHARGE = -2.075000E-03
 
 SOLVING FOR HEAD 

 OUTPUT CONTROL FOR STRESS PERIOD   71   TIME STEP    1
    SAVE HEAD FOR ALL LAYERS

 HEAD WILL BE SAVED ON UNIT   51 AT END OF TIME STEP    1, STRESS PERIOD   71
1
  VOLUMETRIC BUDGET FOR ENTIRE MODEL AT END OF TIME STEP    1, STRESS PERIOD  71
  ------------------------------------------------------------------------------

     CUMULATIVE VOLUMES      L**3       RATES FOR THIS TIME STEP      L**3/T
     ------------------                 ------------------------

           IN:                                      IN:
           ---                                      ---
             STORAGE =        1162.5409               STORAGE =          21.5707
       CONSTANT HEAD =           0.0000         CONSTANT HEAD =           0.0000
       RIVER LEAKAGE =          25.5097         RIVER LEAKAGE =           2.3412
            RECHARGE =         725.0000              RECHARGE =           0.0000

            TOTAL IN =        1913.0505              TOTAL IN =          23.9119

          OUT:                                     OUT:
          ----                                     ----
             STORAGE =         599.1025               STORAGE =           0.0000
       CONSTANT HEAD =         230.4962         CONSTANT HEAD =           3.1619
       RIVER LEAKAGE =         166.2022         RIVER LEAKAGE =           0.0000
            RECHARGE =         917.2500              RECHARGE =          20.7500

           TOTAL OUT =        1913.0509             TOTAL OUT =          23.9119

            IN - OUT =      -3.6621E-04              IN - OUT =       4.5776E-05

 PERCENT DISCREPANCY =          -0.00     PERCENT DISCREPANCY =           0.00






         TIME SUMMARY AT END OF TIME STEP    1 IN STRESS PERIOD   71
                    SECONDS     MINUTES      HOURS       DAYS        YEARS
                    -----------------------------------------------------------
   TIME STEP LENGTH  86400.      1440.0      24.000      1.0000     2.73785E-03
 STRESS PERIOD TIME  86400.      1440.0      24.000      1.0000     2.73785E-03
         TOTAL TIME 6.13440E+06 1.02240E+05  1704.0      71.000     0.19439    
1
1
                            STRESS PERIOD NO.   72, LENGTH =   1.000000    
                            -----------------------------------------------

                              NUMBER OF TIME STEPS =     1

                               MULTIPLIER FOR DELT =     1.000

                            INITIAL TIME STEP SIZE =   1.000000    

 REUSING NON-PARAMETER RIVER REACHES FROM LAST STRESS PERIOD

      2 RIVER REACHES

                 RECHARGE = -2.500000E-03
 
 SOLVING FOR HEAD 

 OUTPUT CONTROL FOR STRESS PERIOD   72   TIME STEP    1
    SAVE HEAD FOR ALL LAYERS

 HEAD WILL BE SAVED ON UNIT   51 AT END OF TIME STEP    1, STRESS PERIOD   72
1
  VOLUMETRIC BUDGET FOR ENTIRE MODEL AT END OF TIME STEP    1, STRESS PERIOD  72
  ------------------------------------------------------------------------------

     CUMULATIVE VOLUMES      L**3       RATES FOR THIS TIME STEP      L**3/T
     ------------------                 ------------------------

           IN:                                      IN:
           ---                                      ---
             STORAGE =        1187.9954               STORAGE =          25.4544
       CONSTANT HEAD =           0.0000         CONSTANT HEAD =           0.0000
       RIVER LEAKAGE =          28.2126         RIVER LEAKAGE =           2.7029
            RECHARGE =         725.0000              RECHARGE =           0.0000

            TOTAL IN =        1941.2080              TOTAL IN =          28.1573

          OUT:                                     OUT:
          ----                                     ----
             STORAGE =         599.1025               STORAGE =           0.0000
       CONSTANT HEAD =         233.6535         CONSTANT HEAD =           3.1573
       RIVER LEAKAGE =         166.2022         RIVER LEAKAGE =           0.0000
            RECHARGE =         942.2500              RECHARGE =          25.0000

           TOTAL OUT =        1941.2081             TOTAL OUT =          28.1573

            IN - OUT =      -1.2207E-04              IN - OUT =       5.1498E-05

 PERCENT DISCREPANCY =          -0.00     PERCENT DISCREPANCY =           0.00






         TIME SUMMARY AT END OF TIME STEP    1 IN STRESS PERIOD   72
                    SECONDS     MINUTES      HOURS       DAYS        YEARS
                    -----------------------------------------------------------
   TIME STEP LENGTH  86400.      1440.0      24.000      1.0000     2.73785E-03
 STRESS PERIOD TIME  86400.      1440.0      24.000      1.0000     2.73785E-03
         TOTAL TIME 6.22080E+06 1.03680E+05  1728.0      72.000     0.19713    
1
1
                            STRESS PERIOD NO.   73, LENGTH =   1.000000    
                            -----------------------------------------------

                              NUMBER OF TIME STEPS =     1

                               MULTIPLIER FOR DELT =     1.000

                            INITIAL TIME STEP SIZE =   1.000000    

 REUSING NON-PARAMETER RIVER REACHES FROM LAST STRESS PERIOD

      2 RIVER REACHES

                 RECHARGE = -3.400000E-03
 
 SOLVING FOR HEAD 

 OUTPUT CONTROL FOR STRESS PERIOD   73   TIME STEP    1
    SAVE HEAD FOR ALL LAYERS

 HEAD WILL BE SAVED ON UNIT   51 AT END OF TIME STEP    1, STRESS PERIOD   73
1
  VOLUMETRIC BUDGET FOR ENTIRE MODEL AT END OF TIME STEP    1, STRESS PERIOD  73
  ------------------------------------------------------------------------------

     CUMULATIVE VOLUMES      L**3       RATES FOR THIS TIME STEP      L**3/T
     ------------------                 ------------------------

           IN:                                      IN:
           ---                                      ---
             STORAGE =        1221.8402               STORAGE =          33.8448
       CONSTANT HEAD =           0.0000         CONSTANT HEAD =           0.0000
       RIVER LEAKAGE =          31.5199         RIVER LEAKAGE =           3.3073
            RECHARGE =         725.0000              RECHARGE =           0.0000

            TOTAL IN =        1978.3601              TOTAL IN =          37.1521

          OUT:                                     OUT:
          ----                                     ----
             STORAGE =         599.1025               STORAGE =           0.0000
       CONSTANT HEAD =         236.8056         CONSTANT HEAD =           3.1522
       RIVER LEAKAGE =         166.2022         RIVER LEAKAGE =           0.0000
            RECHARGE =         976.2500              RECHARGE =          34.0000

           TOTAL OUT =        1978.3604             TOTAL OUT =          37.1522

            IN - OUT =      -2.4414E-04              IN - OUT =      -1.0300E-04

 PERCENT DISCREPANCY =          -0.00     PERCENT DISCREPANCY =          -0.00






         TIME SUMMARY AT END OF TIME STEP    1 IN STRESS PERIOD   73
                    SECONDS     MINUTES      HOURS       DAYS        YEARS
                    -----------------------------------------------------------
   TIME STEP LENGTH  86400.      1440.0      24.000      1.0000     2.73785E-03
 STRESS PERIOD TIME  86400.      1440.0      24.000      1.0000     2.73785E-03
         TOTAL TIME 6.30720E+06 1.05120E+05  1752.0      73.000     0.19986    
1
1
                            STRESS PERIOD NO.   74, LENGTH =   1.000000    
                            -----------------------------------------------

                              NUMBER OF TIME STEPS =     1

                               MULTIPLIER FOR DELT =     1.000

                            INITIAL TIME STEP SIZE =   1.000000    

 REUSING NON-PARAMETER RIVER REACHES FROM LAST STRESS PERIOD

      2 RIVER REACHES

                 RECHARGE = -3.700000E-03
 
 SOLVING FOR HEAD 

 OUTPUT CONTROL FOR STRESS PERIOD   74   TIME STEP    1
    SAVE HEAD FOR ALL LAYERS

 HEAD WILL BE SAVED ON UNIT   51 AT END OF TIME STEP    1, STRESS PERIOD   74
1
  VOLUMETRIC BUDGET FOR ENTIRE MODEL AT END OF TIME STEP    1, STRESS PERIOD  74
  ------------------------------------------------------------------------------

     CUMULATIVE VOLUMES      L**3       RATES FOR THIS TIME STEP      L**3/T
     ------------------                 ------------------------

           IN:                                      IN:
           ---                                      ---
             STORAGE =        1258.1227               STORAGE =          36.2825
       CONSTANT HEAD =           0.0000         CONSTANT HEAD =           0.0000
       RIVER LEAKAGE =          35.3841         RIVER LEAKAGE =           3.8643
            RECHARGE =         725.0000              RECHARGE =           0.0000

            TOTAL IN =        2018.5068              TOTAL IN =          40.1468

          OUT:                                     OUT:
          ----                                     ----
             STORAGE =         599.1025               STORAGE =           0.0000
       CONSTANT HEAD =         239.9523         CONSTANT HEAD =           3.1466
       RIVER LEAKAGE =         166.2022         RIVER LEAKAGE =           0.0000
            RECHARGE =        1013.2500              RECHARGE =          37.0000

           TOTAL OUT =        2018.5070             TOTAL OUT =          40.1466

            IN - OUT =      -1.2207E-04              IN - OUT =       1.5259E-04

 PERCENT DISCREPANCY =          -0.00     PERCENT DISCREPANCY =           0.00






         TIME SUMMARY AT END OF TIME STEP    1 IN STRESS PERIOD   74
                    SECONDS     MINUTES      HOURS       DAYS        YEARS
                    -----------------------------------------------------------
   TIME STEP LENGTH  86400.      1440.0      24.000      1.0000     2.73785E-03
 STRESS PERIOD TIME  86400.      1440.0      24.000      1.0000     2.73785E-03
         TOTAL TIME 6.39360E+06 1.06560E+05  1776.0      74.000     0.20260    
1
1
                            STRESS PERIOD NO.   75, LENGTH =   1.000000    
                            -----------------------------------------------

                              NUMBER OF TIME STEPS =     1

                               MULTIPLIER FOR DELT =     1.000

                            INITIAL TIME STEP SIZE =   1.000000    

 REUSING NON-PARAMETER RIVER REACHES FROM LAST STRESS PERIOD

      2 RIVER REACHES

                 RECHARGE =  1.040000E-02
 
 SOLVING FOR HEAD 

 OUTPUT CONTROL FOR STRESS PERIOD   75   TIME STEP    1
    SAVE HEAD FOR ALL LAYERS

 HEAD WILL BE SAVED ON UNIT   51 AT END OF TIME STEP    1, STRESS PERIOD   75
1
  VOLUMETRIC BUDGET FOR ENTIRE MODEL AT END OF TIME STEP    1, STRESS PERIOD  75
  ------------------------------------------------------------------------------

     CUMULATIVE VOLUMES      L**3       RATES FOR THIS TIME STEP      L**3/T
     ------------------                 ------------------------

           IN:                                      IN:
           ---                                      ---
             STORAGE =        1258.3778               STORAGE =           0.2551
       CONSTANT HEAD =           0.0000         CONSTANT HEAD =           0.0000
       RIVER LEAKAGE =          35.3841         RIVER LEAKAGE =           0.0000
            RECHARGE =         829.0000              RECHARGE =         104.0000

            TOTAL IN =        2122.7620              TOTAL IN =         104.2551

          OUT:                                     OUT:
          ----                                     ----
             STORAGE =         699.6293               STORAGE =         100.5268
       CONSTANT HEAD =         243.0980         CONSTANT HEAD =           3.1457
       RIVER LEAKAGE =         166.7848         RIVER LEAKAGE =           0.5826
            RECHARGE =        1013.2500              RECHARGE =           0.0000

           TOTAL OUT =        2122.7622             TOTAL OUT =         104.2551

            IN - OUT =      -2.4414E-04              IN - OUT =      -6.1035E-05

 PERCENT DISCREPANCY =          -0.00     PERCENT DISCREPANCY =          -0.00






         TIME SUMMARY AT END OF TIME STEP    1 IN STRESS PERIOD   75
                    SECONDS     MINUTES      HOURS       DAYS        YEARS
                    -----------------------------------------------------------
   TIME STEP LENGTH  86400.      1440.0      24.000      1.0000     2.73785E-03
 STRESS PERIOD TIME  86400.      1440.0      24.000      1.0000     2.73785E-03
         TOTAL TIME 6.48000E+06 1.08000E+05  1800.0      75.000     0.20534    
1
1
                            STRESS PERIOD NO.   76, LENGTH =   1.000000    
                            -----------------------------------------------

                              NUMBER OF TIME STEPS =     1

                               MULTIPLIER FOR DELT =     1.000

                            INITIAL TIME STEP SIZE =   1.000000    

 REUSING NON-PARAMETER RIVER REACHES FROM LAST STRESS PERIOD

      2 RIVER REACHES

                 RECHARGE =  8.000000E-03
 
 SOLVING FOR HEAD 

 OUTPUT CONTROL FOR STRESS PERIOD   76   TIME STEP    1
    SAVE HEAD FOR ALL LAYERS

 HEAD WILL BE SAVED ON UNIT   51 AT END OF TIME STEP    1, STRESS PERIOD   76
1
  VOLUMETRIC BUDGET FOR ENTIRE MODEL AT END OF TIME STEP    1, STRESS PERIOD  76
  ------------------------------------------------------------------------------

     CUMULATIVE VOLUMES      L**3       RATES FOR THIS TIME STEP      L**3/T
     ------------------                 ------------------------

           IN:                                      IN:
           ---                                      ---
             STORAGE =        1258.5831               STORAGE =           0.2053
       CONSTANT HEAD =           0.0000         CONSTANT HEAD =           0.0000
       RIVER LEAKAGE =          35.3841         RIVER LEAKAGE =           0.0000
            RECHARGE =         909.0000              RECHARGE =          80.0000

            TOTAL IN =        2202.9673              TOTAL IN =          80.2054

          OUT:                                     OUT:
          ----                                     ----
             STORAGE =         774.2859               STORAGE =          74.6566
       CONSTANT HEAD =         246.2439         CONSTANT HEAD =           3.1459
       RIVER LEAKAGE =         169.1875         RIVER LEAKAGE =           2.4027
            RECHARGE =        1013.2500              RECHARGE =           0.0000

           TOTAL OUT =        2202.9673             TOTAL OUT =          80.2052

            IN - OUT =           0.0000              IN - OUT =       1.2970E-04

 PERCENT DISCREPANCY =           0.00     PERCENT DISCREPANCY =           0.00






         TIME SUMMARY AT END OF TIME STEP    1 IN STRESS PERIOD   76
                    SECONDS     MINUTES      HOURS       DAYS        YEARS
                    -----------------------------------------------------------
   TIME STEP LENGTH  86400.      1440.0      24.000      1.0000     2.73785E-03
 STRESS PERIOD TIME  86400.      1440.0      24.000      1.0000     2.73785E-03
         TOTAL TIME 6.56640E+06 1.09440E+05  1824.0      76.000     0.20808    
1
1
                            STRESS PERIOD NO.   77, LENGTH =   1.000000    
                            -----------------------------------------------

                              NUMBER OF TIME STEPS =     1

                               MULTIPLIER FOR DELT =     1.000

                            INITIAL TIME STEP SIZE =   1.000000    

 REUSING NON-PARAMETER RIVER REACHES FROM LAST STRESS PERIOD

      2 RIVER REACHES

                 RECHARGE = -1.000000E-03
 
 SOLVING FOR HEAD 

 OUTPUT CONTROL FOR STRESS PERIOD   77   TIME STEP    1
    SAVE HEAD FOR ALL LAYERS

 HEAD WILL BE SAVED ON UNIT   51 AT END OF TIME STEP    1, STRESS PERIOD   77
1
  VOLUMETRIC BUDGET FOR ENTIRE MODEL AT END OF TIME STEP    1, STRESS PERIOD  77
  ------------------------------------------------------------------------------

     CUMULATIVE VOLUMES      L**3       RATES FOR THIS TIME STEP      L**3/T
     ------------------                 ------------------------

           IN:                                      IN:
           ---                                      ---
             STORAGE =        1272.4720               STORAGE =          13.8889
       CONSTANT HEAD =           0.0000         CONSTANT HEAD =           0.0000
       RIVER LEAKAGE =          35.3841         RIVER LEAKAGE =           0.0000
            RECHARGE =         909.0000              RECHARGE =           0.0000

            TOTAL IN =        2216.8562              TOTAL IN =          13.8889

          OUT:                                     OUT:
          ----                                     ----
             STORAGE =         774.2859               STORAGE =           0.0000
       CONSTANT HEAD =         249.3878         CONSTANT HEAD =           3.1439
       RIVER LEAKAGE =         169.9321         RIVER LEAKAGE =           0.7447
            RECHARGE =        1023.2500              RECHARGE =          10.0000

           TOTAL OUT =        2216.8560             TOTAL OUT =          13.8886

            IN - OUT =       2.4414E-04              IN - OUT =       2.7847E-04

 PERCENT DISCREPANCY =           0.00     PERCENT DISCREPANCY =           0.00






         TIME SUMMARY AT END OF TIME STEP    1 IN STRESS PERIOD   77
                    SECONDS     MINUTES      HOURS       DAYS        YEARS
                    -----------------------------------------------------------
   TIME STEP LENGTH  86400.      1440.0      24.000      1.0000     2.73785E-03
 STRESS PERIOD TIME  86400.      1440.0      24.000      1.0000     2.73785E-03
         TOTAL TIME 6.65280E+06 1.10880E+05  1848.0      77.000     0.21081    
1
1
                            STRESS PERIOD NO.   78, LENGTH =   1.000000    
                            -----------------------------------------------

                              NUMBER OF TIME STEPS =     1

                               MULTIPLIER FOR DELT =     1.000

                            INITIAL TIME STEP SIZE =   1.000000    

 REUSING NON-PARAMETER RIVER REACHES FROM LAST STRESS PERIOD

      2 RIVER REACHES

                 RECHARGE = -3.875000E-03
 
 SOLVING FOR HEAD 

 OUTPUT CONTROL FOR STRESS PERIOD   78   TIME STEP    1
    SAVE HEAD FOR ALL LAYERS

 HEAD WILL BE SAVED ON UNIT   51 AT END OF TIME STEP    1, STRESS PERIOD   78
1
  VOLUMETRIC BUDGET FOR ENTIRE MODEL AT END OF TIME STEP    1, STRESS PERIOD  78
  ------------------------------------------------------------------------------

     CUMULATIVE VOLUMES      L**3       RATES FOR THIS TIME STEP      L**3/T
     ------------------                 ------------------------

           IN:                                      IN:
           ---                                      ---
             STORAGE =        1313.4038               STORAGE =          40.9317
       CONSTANT HEAD =           0.0000         CONSTANT HEAD =           0.0000
       RIVER LEAKAGE =          36.3430         RIVER LEAKAGE =           0.9589
            RECHARGE =         909.0000              RECHARGE =           0.0000

            TOTAL IN =        2258.7468              TOTAL IN =          41.8906

          OUT:                                     OUT:
          ----                                     ----
             STORAGE =         774.2859               STORAGE =           0.0000
       CONSTANT HEAD =         252.5282         CONSTANT HEAD =           3.1404
       RIVER LEAKAGE =         169.9321         RIVER LEAKAGE =           0.0000
            RECHARGE =        1062.0000              RECHARGE =          38.7500

           TOTAL OUT =        2258.7463             TOTAL OUT =          41.8904

            IN - OUT =       4.8828E-04              IN - OUT =       1.7929E-04

 PERCENT DISCREPANCY =           0.00     PERCENT DISCREPANCY =           0.00






         TIME SUMMARY AT END OF TIME STEP    1 IN STRESS PERIOD   78
                    SECONDS     MINUTES      HOURS       DAYS        YEARS
                    -----------------------------------------------------------
   TIME STEP LENGTH  86400.      1440.0      24.000      1.0000     2.73785E-03
 STRESS PERIOD TIME  86400.      1440.0      24.000      1.0000     2.73785E-03
         TOTAL TIME 6.73920E+06 1.12320E+05  1872.0      78.000     0.21355    
1
1
                            STRESS PERIOD NO.   79, LENGTH =   1.000000    
                            -----------------------------------------------

                              NUMBER OF TIME STEPS =     1

                               MULTIPLIER FOR DELT =     1.000

                            INITIAL TIME STEP SIZE =   1.000000    

 REUSING NON-PARAMETER RIVER REACHES FROM LAST STRESS PERIOD

      2 RIVER REACHES

                 RECHARGE = -2.775000E-03
 
 SOLVING FOR HEAD 

 OUTPUT CONTROL FOR STRESS PERIOD   79   TIME STEP    1
    SAVE HEAD FOR ALL LAYERS

 HEAD WILL BE SAVED ON UNIT   51 AT END OF TIME STEP    1, STRESS PERIOD   79
1
  VOLUMETRIC BUDGET FOR ENTIRE MODEL AT END OF TIME STEP    1, STRESS PERIOD  79
  ------------------------------------------------------------------------------

     CUMULATIVE VOLUMES      L**3       RATES FOR THIS TIME STEP      L**3/T
     ------------------                 ------------------------

           IN:                                      IN:
           ---                                      ---
             STORAGE =        1342.6759               STORAGE =          29.2721
       CONSTANT HEAD =           0.0000         CONSTANT HEAD =           0.0000
       RIVER LEAKAGE =          37.9575         RIVER LEAKAGE =           1.6145
            RECHARGE =         909.0000              RECHARGE =           0.0000

            TOTAL IN =        2289.6333              TOTAL IN =          30.8866

          OUT:                                     OUT:
          ----                                     ----
             STORAGE =         774.2859               STORAGE =           0.0000
       CONSTANT HEAD =         255.6648         CONSTANT HEAD =           3.1365
       RIVER LEAKAGE =         169.9321         RIVER LEAKAGE =           0.0000
            RECHARGE =        1089.7500              RECHARGE =          27.7500

           TOTAL OUT =        2289.6328             TOTAL OUT =          30.8865

            IN - OUT =       4.8828E-04              IN - OUT =       2.8610E-05

 PERCENT DISCREPANCY =           0.00     PERCENT DISCREPANCY =           0.00






         TIME SUMMARY AT END OF TIME STEP    1 IN STRESS PERIOD   79
                    SECONDS     MINUTES      HOURS       DAYS        YEARS
                    -----------------------------------------------------------
   TIME STEP LENGTH  86400.      1440.0      24.000      1.0000     2.73785E-03
 STRESS PERIOD TIME  86400.      1440.0      24.000      1.0000     2.73785E-03
         TOTAL TIME 6.82560E+06 1.13760E+05  1896.0      79.000     0.21629    
1
1
                            STRESS PERIOD NO.   80, LENGTH =   1.000000    
                            -----------------------------------------------

                              NUMBER OF TIME STEPS =     1

                               MULTIPLIER FOR DELT =     1.000

                            INITIAL TIME STEP SIZE =   1.000000    

 REUSING NON-PARAMETER RIVER REACHES FROM LAST STRESS PERIOD

      2 RIVER REACHES

                 RECHARGE = -4.300000E-03
 
 SOLVING FOR HEAD 

 OUTPUT CONTROL FOR STRESS PERIOD   80   TIME STEP    1
    SAVE HEAD FOR ALL LAYERS

 HEAD WILL BE SAVED ON UNIT   51 AT END OF TIME STEP    1, STRESS PERIOD   80
1
  VOLUMETRIC BUDGET FOR ENTIRE MODEL AT END OF TIME STEP    1, STRESS PERIOD  80
  ------------------------------------------------------------------------------

     CUMULATIVE VOLUMES      L**3       RATES FOR THIS TIME STEP      L**3/T
     ------------------                 ------------------------

           IN:                                      IN:
           ---                                      ---
             STORAGE =        1386.1299               STORAGE =          43.4540
       CONSTANT HEAD =           0.0000         CONSTANT HEAD =           0.0000
       RIVER LEAKAGE =          40.6355         RIVER LEAKAGE =           2.6780
            RECHARGE =         909.0000              RECHARGE =           0.0000

            TOTAL IN =        2335.7654              TOTAL IN =          46.1320

          OUT:                                     OUT:
          ----                                     ----
             STORAGE =         774.2859               STORAGE =           0.0000
       CONSTANT HEAD =         258.7966         CONSTANT HEAD =           3.1318
       RIVER LEAKAGE =         169.9321         RIVER LEAKAGE =           0.0000
            RECHARGE =        1132.7500              RECHARGE =          43.0000

           TOTAL OUT =        2335.7646             TOTAL OUT =          46.1318

            IN - OUT =       7.3242E-04              IN - OUT =       2.3270E-04

 PERCENT DISCREPANCY =           0.00     PERCENT DISCREPANCY =           0.00






         TIME SUMMARY AT END OF TIME STEP    1 IN STRESS PERIOD   80
                    SECONDS     MINUTES      HOURS       DAYS        YEARS
                    -----------------------------------------------------------
   TIME STEP LENGTH  86400.      1440.0      24.000      1.0000     2.73785E-03
 STRESS PERIOD TIME  86400.      1440.0      24.000      1.0000     2.73785E-03
         TOTAL TIME 6.91200E+06 1.15200E+05  1920.0      80.000     0.21903    
1
1
                            STRESS PERIOD NO.   81, LENGTH =   1.000000    
                            -----------------------------------------------

                              NUMBER OF TIME STEPS =     1

                               MULTIPLIER FOR DELT =     1.000

                            INITIAL TIME STEP SIZE =   1.000000    

 REUSING NON-PARAMETER RIVER REACHES FROM LAST STRESS PERIOD

      2 RIVER REACHES

                 RECHARGE = -1.600000E-03
 
 SOLVING FOR HEAD 

 OUTPUT CONTROL FOR STRESS PERIOD   81   TIME STEP    1
    SAVE HEAD FOR ALL LAYERS

 HEAD WILL BE SAVED ON UNIT   51 AT END OF TIME STEP    1, STRESS PERIOD   81
1
  VOLUMETRIC BUDGET FOR ENTIRE MODEL AT END OF TIME STEP    1, STRESS PERIOD  81
  ------------------------------------------------------------------------------

     CUMULATIVE VOLUMES      L**3       RATES FOR THIS TIME STEP      L**3/T
     ------------------                 ------------------------

           IN:                                      IN:
           ---                                      ---
             STORAGE =        1402.7858               STORAGE =          16.6559
       CONSTANT HEAD =           0.0000         CONSTANT HEAD =           0.0000
       RIVER LEAKAGE =          43.1482         RIVER LEAKAGE =           2.5127
            RECHARGE =         909.0000              RECHARGE =           0.0000

            TOTAL IN =        2354.9341              TOTAL IN =          19.1686

          OUT:                                     OUT:
          ----                                     ----
             STORAGE =         774.3273               STORAGE =       4.1380E-02
       CONSTANT HEAD =         261.9240         CONSTANT HEAD =           3.1275
       RIVER LEAKAGE =         169.9321         RIVER LEAKAGE =           0.0000
            RECHARGE =        1148.7500              RECHARGE =          16.0000

           TOTAL OUT =        2354.9336             TOTAL OUT =          19.1688

            IN - OUT =       4.8828E-04              IN - OUT =      -2.1744E-04

 PERCENT DISCREPANCY =           0.00     PERCENT DISCREPANCY =          -0.00






         TIME SUMMARY AT END OF TIME STEP    1 IN STRESS PERIOD   81
                    SECONDS     MINUTES      HOURS       DAYS        YEARS
                    -----------------------------------------------------------
   TIME STEP LENGTH  86400.      1440.0      24.000      1.0000     2.73785E-03
 STRESS PERIOD TIME  86400.      1440.0      24.000      1.0000     2.73785E-03
         TOTAL TIME 6.99840E+06 1.16640E+05  1944.0      81.000     0.22177    
1
1
                            STRESS PERIOD NO.   82, LENGTH =   1.000000    
                            -----------------------------------------------

                              NUMBER OF TIME STEPS =     1

                               MULTIPLIER FOR DELT =     1.000

                            INITIAL TIME STEP SIZE =   1.000000    

 REUSING NON-PARAMETER RIVER REACHES FROM LAST STRESS PERIOD

      2 RIVER REACHES

                 RECHARGE = -1.200000E-03
 
 SOLVING FOR HEAD 

 OUTPUT CONTROL FOR STRESS PERIOD   82   TIME STEP    1
    SAVE HEAD FOR ALL LAYERS

 HEAD WILL BE SAVED ON UNIT   51 AT END OF TIME STEP    1, STRESS PERIOD   82
1
  VOLUMETRIC BUDGET FOR ENTIRE MODEL AT END OF TIME STEP    1, STRESS PERIOD  82
  ------------------------------------------------------------------------------

     CUMULATIVE VOLUMES      L**3       RATES FOR THIS TIME STEP      L**3/T
     ------------------                 ------------------------

           IN:                                      IN:
           ---                                      ---
             STORAGE =        1415.5170               STORAGE =          12.7312
       CONSTANT HEAD =           0.0000         CONSTANT HEAD =           0.0000
       RIVER LEAKAGE =          45.5762         RIVER LEAKAGE =           2.4280
            RECHARGE =         909.0000              RECHARGE =           0.0000

            TOTAL IN =        2370.0933              TOTAL IN =          15.1592

          OUT:                                     OUT:
          ----                                     ----
             STORAGE =         774.3632               STORAGE =       3.5850E-02
       CONSTANT HEAD =         265.0473         CONSTANT HEAD =           3.1233
       RIVER LEAKAGE =         169.9321         RIVER LEAKAGE =           0.0000
            RECHARGE =        1160.7500              RECHARGE =          12.0000

           TOTAL OUT =        2370.0925             TOTAL OUT =          15.1591

            IN - OUT =       7.3242E-04              IN - OUT =       1.3924E-04

 PERCENT DISCREPANCY =           0.00     PERCENT DISCREPANCY =           0.00






         TIME SUMMARY AT END OF TIME STEP    1 IN STRESS PERIOD   82
                    SECONDS     MINUTES      HOURS       DAYS        YEARS
                    -----------------------------------------------------------
   TIME STEP LENGTH  86400.      1440.0      24.000      1.0000     2.73785E-03
 STRESS PERIOD TIME  86400.      1440.0      24.000      1.0000     2.73785E-03
         TOTAL TIME 7.08480E+06 1.18080E+05  1968.0      82.000     0.22450    
1
1
                            STRESS PERIOD NO.   83, LENGTH =   1.000000    
                            -----------------------------------------------

                              NUMBER OF TIME STEPS =     1

                               MULTIPLIER FOR DELT =     1.000

                            INITIAL TIME STEP SIZE =   1.000000    

 REUSING NON-PARAMETER RIVER REACHES FROM LAST STRESS PERIOD

      2 RIVER REACHES

                 RECHARGE = -2.100000E-03
 
 SOLVING FOR HEAD 

 OUTPUT CONTROL FOR STRESS PERIOD   83   TIME STEP    1
    SAVE HEAD FOR ALL LAYERS

 HEAD WILL BE SAVED ON UNIT   51 AT END OF TIME STEP    1, STRESS PERIOD   83
1
  VOLUMETRIC BUDGET FOR ENTIRE MODEL AT END OF TIME STEP    1, STRESS PERIOD  83
  ------------------------------------------------------------------------------

     CUMULATIVE VOLUMES      L**3       RATES FOR THIS TIME STEP      L**3/T
     ------------------                 ------------------------

           IN:                                      IN:
           ---                                      ---
             STORAGE =        1436.8782               STORAGE =          21.3612
       CONSTANT HEAD =           0.0000         CONSTANT HEAD =           0.0000
       RIVER LEAKAGE =          48.3336         RIVER LEAKAGE =           2.7574
            RECHARGE =         909.0000              RECHARGE =           0.0000

            TOTAL IN =        2394.2119              TOTAL IN =          24.1187

          OUT:                                     OUT:
          ----                                     ----
             STORAGE =         774.3632               STORAGE =           0.0000
       CONSTANT HEAD =         268.1660         CONSTANT HEAD =           3.1187
       RIVER LEAKAGE =         169.9321         RIVER LEAKAGE =           0.0000
            RECHARGE =        1181.7500              RECHARGE =          21.0000

           TOTAL OUT =        2394.2114             TOTAL OUT =          24.1187

            IN - OUT =       4.8828E-04              IN - OUT =      -8.3923E-05

 PERCENT DISCREPANCY =           0.00     PERCENT DISCREPANCY =          -0.00






         TIME SUMMARY AT END OF TIME STEP    1 IN STRESS PERIOD   83
                    SECONDS     MINUTES      HOURS       DAYS        YEARS
                    -----------------------------------------------------------
   TIME STEP LENGTH  86400.      1440.0      24.000      1.0000     2.73785E-03
 STRESS PERIOD TIME  86400.      1440.0      24.000      1.0000     2.73785E-03
         TOTAL TIME 7.17120E+06 1.19520E+05  1992.0      83.000     0.22724    
1
1
                            STRESS PERIOD NO.   84, LENGTH =   1.000000    
                            -----------------------------------------------

                              NUMBER OF TIME STEPS =     1

                               MULTIPLIER FOR DELT =     1.000

                            INITIAL TIME STEP SIZE =   1.000000    

 REUSING NON-PARAMETER RIVER REACHES FROM LAST STRESS PERIOD

      2 RIVER REACHES

                 RECHARGE = -3.600000E-03
 
 SOLVING FOR HEAD 

 OUTPUT CONTROL FOR STRESS PERIOD   84   TIME STEP    1
    SAVE HEAD FOR ALL LAYERS

 HEAD WILL BE SAVED ON UNIT   51 AT END OF TIME STEP    1, STRESS PERIOD   84
1
  VOLUMETRIC BUDGET FOR ENTIRE MODEL AT END OF TIME STEP    1, STRESS PERIOD  84
  ------------------------------------------------------------------------------

     CUMULATIVE VOLUMES      L**3       RATES FOR THIS TIME STEP      L**3/T
     ------------------                 ------------------------

           IN:                                      IN:
           ---                                      ---
             STORAGE =        1472.4692               STORAGE =          35.5911
       CONSTANT HEAD =           0.0000         CONSTANT HEAD =           0.0000
       RIVER LEAKAGE =          51.8559         RIVER LEAKAGE =           3.5223
            RECHARGE =         909.0000              RECHARGE =           0.0000

            TOTAL IN =        2433.3252              TOTAL IN =          39.1134

          OUT:                                     OUT:
          ----                                     ----
             STORAGE =         774.3632               STORAGE =           0.0000
       CONSTANT HEAD =         271.2796         CONSTANT HEAD =           3.1136
       RIVER LEAKAGE =         169.9321         RIVER LEAKAGE =           0.0000
            RECHARGE =        1217.7500              RECHARGE =          36.0000

           TOTAL OUT =        2433.3247             TOTAL OUT =          39.1136

            IN - OUT =       4.8828E-04              IN - OUT =      -1.9073E-04

 PERCENT DISCREPANCY =           0.00     PERCENT DISCREPANCY =          -0.00






         TIME SUMMARY AT END OF TIME STEP    1 IN STRESS PERIOD   84
                    SECONDS     MINUTES      HOURS       DAYS        YEARS
                    -----------------------------------------------------------
   TIME STEP LENGTH  86400.      1440.0      24.000      1.0000     2.73785E-03
 STRESS PERIOD TIME  86400.      1440.0      24.000      1.0000     2.73785E-03
         TOTAL TIME 7.25760E+06 1.20960E+05  2016.0      84.000     0.22998    
1
1
                            STRESS PERIOD NO.   85, LENGTH =   1.000000    
                            -----------------------------------------------

                              NUMBER OF TIME STEPS =     1

                               MULTIPLIER FOR DELT =     1.000

                            INITIAL TIME STEP SIZE =   1.000000    

 REUSING NON-PARAMETER RIVER REACHES FROM LAST STRESS PERIOD

      2 RIVER REACHES

                 RECHARGE = -4.600000E-03
 
 SOLVING FOR HEAD 

 OUTPUT CONTROL FOR STRESS PERIOD   85   TIME STEP    1
    SAVE HEAD FOR ALL LAYERS

 HEAD WILL BE SAVED ON UNIT   51 AT END OF TIME STEP    1, STRESS PERIOD   85
1
  VOLUMETRIC BUDGET FOR ENTIRE MODEL AT END OF TIME STEP    1, STRESS PERIOD  85
  ------------------------------------------------------------------------------

     CUMULATIVE VOLUMES      L**3       RATES FOR THIS TIME STEP      L**3/T
     ------------------                 ------------------------

           IN:                                      IN:
           ---                                      ---
             STORAGE =        1517.1714               STORAGE =          44.7022
       CONSTANT HEAD =           0.0000         CONSTANT HEAD =           0.0000
       RIVER LEAKAGE =          56.2614         RIVER LEAKAGE =           4.4055
            RECHARGE =         909.0000              RECHARGE =           0.0000

            TOTAL IN =        2482.4326              TOTAL IN =          49.1077

          OUT:                                     OUT:
          ----                                     ----
             STORAGE =         774.3632               STORAGE =           0.0000
       CONSTANT HEAD =         274.3872         CONSTANT HEAD =           3.1077
       RIVER LEAKAGE =         169.9321         RIVER LEAKAGE =           0.0000
            RECHARGE =        1263.7500              RECHARGE =          46.0000

           TOTAL OUT =        2482.4326             TOTAL OUT =          49.1077

            IN - OUT =           0.0000              IN - OUT =      -1.5259E-05

 PERCENT DISCREPANCY =           0.00     PERCENT DISCREPANCY =          -0.00






         TIME SUMMARY AT END OF TIME STEP    1 IN STRESS PERIOD   85
                    SECONDS     MINUTES      HOURS       DAYS        YEARS
                    -----------------------------------------------------------
   TIME STEP LENGTH  86400.      1440.0      24.000      1.0000     2.73785E-03
 STRESS PERIOD TIME  86400.      1440.0      24.000      1.0000     2.73785E-03
         TOTAL TIME 7.34400E+06 1.22400E+05  2040.0      85.000     0.23272    
1
1
                            STRESS PERIOD NO.   86, LENGTH =   1.000000    
                            -----------------------------------------------

                              NUMBER OF TIME STEPS =     1

                               MULTIPLIER FOR DELT =     1.000

                            INITIAL TIME STEP SIZE =   1.000000    

 REUSING NON-PARAMETER RIVER REACHES FROM LAST STRESS PERIOD

      2 RIVER REACHES

                 RECHARGE = -4.300000E-03
 
 SOLVING FOR HEAD 

 OUTPUT CONTROL FOR STRESS PERIOD   86   TIME STEP    1
    SAVE HEAD FOR ALL LAYERS

 HEAD WILL BE SAVED ON UNIT   51 AT END OF TIME STEP    1, STRESS PERIOD   86
1
  VOLUMETRIC BUDGET FOR ENTIRE MODEL AT END OF TIME STEP    1, STRESS PERIOD  86
  ------------------------------------------------------------------------------

     CUMULATIVE VOLUMES      L**3       RATES FOR THIS TIME STEP      L**3/T
     ------------------                 ------------------------

           IN:                                      IN:
           ---                                      ---
             STORAGE =        1558.3119               STORAGE =          41.1405
       CONSTANT HEAD =           0.0000         CONSTANT HEAD =           0.0000
       RIVER LEAKAGE =          61.2225         RIVER LEAKAGE =           4.9611
            RECHARGE =         909.0000              RECHARGE =           0.0000

            TOTAL IN =        2528.5344              TOTAL IN =          46.1017

          OUT:                                     OUT:
          ----                                     ----
             STORAGE =         774.3632               STORAGE =           0.0000
       CONSTANT HEAD =         277.4887         CONSTANT HEAD =           3.1014
       RIVER LEAKAGE =         169.9321         RIVER LEAKAGE =           0.0000
            RECHARGE =        1306.7500              RECHARGE =          43.0000

           TOTAL OUT =        2528.5339             TOTAL OUT =          46.1014

            IN - OUT =       4.8828E-04              IN - OUT =       2.3270E-04

 PERCENT DISCREPANCY =           0.00     PERCENT DISCREPANCY =           0.00






         TIME SUMMARY AT END OF TIME STEP    1 IN STRESS PERIOD   86
                    SECONDS     MINUTES      HOURS       DAYS        YEARS
                    -----------------------------------------------------------
   TIME STEP LENGTH  86400.      1440.0      24.000      1.0000     2.73785E-03
 STRESS PERIOD TIME  86400.      1440.0      24.000      1.0000     2.73785E-03
         TOTAL TIME 7.43040E+06 1.23840E+05  2064.0      86.000     0.23546    
1
1
                            STRESS PERIOD NO.   87, LENGTH =   1.000000    
                            -----------------------------------------------

                              NUMBER OF TIME STEPS =     1

                               MULTIPLIER FOR DELT =     1.000

                            INITIAL TIME STEP SIZE =   1.000000    

 REUSING NON-PARAMETER RIVER REACHES FROM LAST STRESS PERIOD

      2 RIVER REACHES

                 RECHARGE = -3.700000E-03
 
 SOLVING FOR HEAD 

 OUTPUT CONTROL FOR STRESS PERIOD   87   TIME STEP    1
    SAVE HEAD FOR ALL LAYERS

 HEAD WILL BE SAVED ON UNIT   51 AT END OF TIME STEP    1, STRESS PERIOD   87
1
  VOLUMETRIC BUDGET FOR ENTIRE MODEL AT END OF TIME STEP    1, STRESS PERIOD  87
  ------------------------------------------------------------------------------

     CUMULATIVE VOLUMES      L**3       RATES FOR THIS TIME STEP      L**3/T
     ------------------                 ------------------------

           IN:                                      IN:
           ---                                      ---
             STORAGE =        1593.1606               STORAGE =          34.8488
       CONSTANT HEAD =           0.0000         CONSTANT HEAD =           0.0000
       RIVER LEAKAGE =          66.4690         RIVER LEAKAGE =           5.2465
            RECHARGE =         909.0000              RECHARGE =           0.0000

            TOTAL IN =        2568.6296              TOTAL IN =          40.0952

          OUT:                                     OUT:
          ----                                     ----
             STORAGE =         774.3632               STORAGE =           0.0000
       CONSTANT HEAD =         280.5838         CONSTANT HEAD =           3.0951
       RIVER LEAKAGE =         169.9321         RIVER LEAKAGE =           0.0000
            RECHARGE =        1343.7500              RECHARGE =          37.0000

           TOTAL OUT =        2568.6289             TOTAL OUT =          40.0951

            IN - OUT =       7.3242E-04              IN - OUT =       1.5259E-04

 PERCENT DISCREPANCY =           0.00     PERCENT DISCREPANCY =           0.00






         TIME SUMMARY AT END OF TIME STEP    1 IN STRESS PERIOD   87
                    SECONDS     MINUTES      HOURS       DAYS        YEARS
                    -----------------------------------------------------------
   TIME STEP LENGTH  86400.      1440.0      24.000      1.0000     2.73785E-03
 STRESS PERIOD TIME  86400.      1440.0      24.000      1.0000     2.73785E-03
         TOTAL TIME 7.51680E+06 1.25280E+05  2088.0      87.000     0.23819    
1
1
                            STRESS PERIOD NO.   88, LENGTH =   1.000000    
                            -----------------------------------------------

                              NUMBER OF TIME STEPS =     1

                               MULTIPLIER FOR DELT =     1.000

                            INITIAL TIME STEP SIZE =   1.000000    

 REUSING NON-PARAMETER RIVER REACHES FROM LAST STRESS PERIOD

      2 RIVER REACHES

                 RECHARGE = -4.900000E-03
 
 SOLVING FOR HEAD 

 OUTPUT CONTROL FOR STRESS PERIOD   88   TIME STEP    1
    SAVE HEAD FOR ALL LAYERS

 HEAD WILL BE SAVED ON UNIT   51 AT END OF TIME STEP    1, STRESS PERIOD   88
1
  VOLUMETRIC BUDGET FOR ENTIRE MODEL AT END OF TIME STEP    1, STRESS PERIOD  88
  ------------------------------------------------------------------------------

     CUMULATIVE VOLUMES      L**3       RATES FOR THIS TIME STEP      L**3/T
     ------------------                 ------------------------

           IN:                                      IN:
           ---                                      ---
             STORAGE =        1639.2704               STORAGE =          46.1097
       CONSTANT HEAD =           0.0000         CONSTANT HEAD =           0.0000
       RIVER LEAKAGE =          72.4472         RIVER LEAKAGE =           5.9782
            RECHARGE =         909.0000              RECHARGE =           0.0000

            TOTAL IN =        2620.7178              TOTAL IN =          52.0879

          OUT:                                     OUT:
          ----                                     ----
             STORAGE =         774.3632               STORAGE =           0.0000
       CONSTANT HEAD =         283.6719         CONSTANT HEAD =           3.0881
       RIVER LEAKAGE =         169.9321         RIVER LEAKAGE =           0.0000
            RECHARGE =        1392.7500              RECHARGE =          49.0000

           TOTAL OUT =        2620.7173             TOTAL OUT =          52.0881

            IN - OUT =       4.8828E-04              IN - OUT =      -2.2125E-04

 PERCENT DISCREPANCY =           0.00     PERCENT DISCREPANCY =          -0.00






         TIME SUMMARY AT END OF TIME STEP    1 IN STRESS PERIOD   88
                    SECONDS     MINUTES      HOURS       DAYS        YEARS
                    -----------------------------------------------------------
   TIME STEP LENGTH  86400.      1440.0      24.000      1.0000     2.73785E-03
 STRESS PERIOD TIME  86400.      1440.0      24.000      1.0000     2.73785E-03
         TOTAL TIME 7.60320E+06 1.26720E+05  2112.0      88.000     0.24093    
1
1
                            STRESS PERIOD NO.   89, LENGTH =   1.000000    
                            -----------------------------------------------

                              NUMBER OF TIME STEPS =     1

                               MULTIPLIER FOR DELT =     1.000

                            INITIAL TIME STEP SIZE =   1.000000    

 REUSING NON-PARAMETER RIVER REACHES FROM LAST STRESS PERIOD

      2 RIVER REACHES

                 RECHARGE = -5.300000E-03
 
 SOLVING FOR HEAD 

 OUTPUT CONTROL FOR STRESS PERIOD   89   TIME STEP    1
    SAVE HEAD FOR ALL LAYERS

 HEAD WILL BE SAVED ON UNIT   51 AT END OF TIME STEP    1, STRESS PERIOD   89
1
  VOLUMETRIC BUDGET FOR ENTIRE MODEL AT END OF TIME STEP    1, STRESS PERIOD  89
  ------------------------------------------------------------------------------

     CUMULATIVE VOLUMES      L**3       RATES FOR THIS TIME STEP      L**3/T
     ------------------                 ------------------------

           IN:                                      IN:
           ---                                      ---
             STORAGE =        1688.6675               STORAGE =          49.3970
       CONSTANT HEAD =           0.0000         CONSTANT HEAD =           0.0000
       RIVER LEAKAGE =          79.1308         RIVER LEAKAGE =           6.6836
            RECHARGE =         909.0000              RECHARGE =           0.0000

            TOTAL IN =        2676.7983              TOTAL IN =          56.0807

          OUT:                                     OUT:
          ----                                     ----
             STORAGE =         774.3632               STORAGE =           0.0000
       CONSTANT HEAD =         286.7526         CONSTANT HEAD =           3.0807
       RIVER LEAKAGE =         169.9321         RIVER LEAKAGE =           0.0000
            RECHARGE =        1445.7500              RECHARGE =          53.0000

           TOTAL OUT =        2676.7979             TOTAL OUT =          56.0807

            IN - OUT =       4.8828E-04              IN - OUT =      -1.5259E-05

 PERCENT DISCREPANCY =           0.00     PERCENT DISCREPANCY =          -0.00






         TIME SUMMARY AT END OF TIME STEP    1 IN STRESS PERIOD   89
                    SECONDS     MINUTES      HOURS       DAYS        YEARS
                    -----------------------------------------------------------
   TIME STEP LENGTH  86400.      1440.0      24.000      1.0000     2.73785E-03
 STRESS PERIOD TIME  86400.      1440.0      24.000      1.0000     2.73785E-03
         TOTAL TIME 7.68960E+06 1.28160E+05  2136.0      89.000     0.24367    
1
1
                            STRESS PERIOD NO.   90, LENGTH =   1.000000    
                            -----------------------------------------------

                              NUMBER OF TIME STEPS =     1

                               MULTIPLIER FOR DELT =     1.000

                            INITIAL TIME STEP SIZE =   1.000000    

 REUSING NON-PARAMETER RIVER REACHES FROM LAST STRESS PERIOD

      2 RIVER REACHES

                 RECHARGE = -5.400000E-03
 
 SOLVING FOR HEAD 

 OUTPUT CONTROL FOR STRESS PERIOD   90   TIME STEP    1
    SAVE HEAD FOR ALL LAYERS

 HEAD WILL BE SAVED ON UNIT   51 AT END OF TIME STEP    1, STRESS PERIOD   90
1
  VOLUMETRIC BUDGET FOR ENTIRE MODEL AT END OF TIME STEP    1, STRESS PERIOD  90
  ------------------------------------------------------------------------------

     CUMULATIVE VOLUMES      L**3       RATES FOR THIS TIME STEP      L**3/T
     ------------------                 ------------------------

           IN:                                      IN:
           ---                                      ---
             STORAGE =        1738.4406               STORAGE =          49.7731
       CONSTANT HEAD =           0.0000         CONSTANT HEAD =           0.0000
       RIVER LEAKAGE =          86.4304         RIVER LEAKAGE =           7.2996
            RECHARGE =         909.0000              RECHARGE =           0.0000

            TOTAL IN =        2733.8711              TOTAL IN =          57.0727

          OUT:                                     OUT:
          ----                                     ----
             STORAGE =         774.3632               STORAGE =           0.0000
       CONSTANT HEAD =         289.8253         CONSTANT HEAD =           3.0728
       RIVER LEAKAGE =         169.9321         RIVER LEAKAGE =           0.0000
            RECHARGE =        1499.7500              RECHARGE =          54.0000

           TOTAL OUT =        2733.8706             TOTAL OUT =          57.0728

            IN - OUT =       4.8828E-04              IN - OUT =      -1.0300E-04

 PERCENT DISCREPANCY =           0.00     PERCENT DISCREPANCY =          -0.00






         TIME SUMMARY AT END OF TIME STEP    1 IN STRESS PERIOD   90
                    SECONDS     MINUTES      HOURS       DAYS        YEARS
                    -----------------------------------------------------------
   TIME STEP LENGTH  86400.      1440.0      24.000      1.0000     2.73785E-03
 STRESS PERIOD TIME  86400.      1440.0      24.000      1.0000     2.73785E-03
         TOTAL TIME 7.77600E+06 1.29600E+05  2160.0      90.000     0.24641    
1
1
                            STRESS PERIOD NO.   91, LENGTH =   1.000000    
                            -----------------------------------------------

                              NUMBER OF TIME STEPS =     1

                               MULTIPLIER FOR DELT =     1.000

                            INITIAL TIME STEP SIZE =   1.000000    

 REUSING NON-PARAMETER RIVER REACHES FROM LAST STRESS PERIOD

      2 RIVER REACHES

                 RECHARGE = -4.800000E-03
 
 SOLVING FOR HEAD 

 OUTPUT CONTROL FOR STRESS PERIOD   91   TIME STEP    1
    SAVE HEAD FOR ALL LAYERS

 HEAD WILL BE SAVED ON UNIT   51 AT END OF TIME STEP    1, STRESS PERIOD   91
1
  VOLUMETRIC BUDGET FOR ENTIRE MODEL AT END OF TIME STEP    1, STRESS PERIOD  91
  ------------------------------------------------------------------------------

     CUMULATIVE VOLUMES      L**3       RATES FOR THIS TIME STEP      L**3/T
     ------------------                 ------------------------

           IN:                                      IN:
           ---                                      ---
             STORAGE =        1781.8740               STORAGE =          43.4334
       CONSTANT HEAD =           0.0000         CONSTANT HEAD =           0.0000
       RIVER LEAKAGE =          94.0616         RIVER LEAKAGE =           7.6312
            RECHARGE =         909.0000              RECHARGE =           0.0000

            TOTAL IN =        2784.9355              TOTAL IN =          51.0646

          OUT:                                     OUT:
          ----                                     ----
             STORAGE =         774.3632               STORAGE =           0.0000
       CONSTANT HEAD =         292.8901         CONSTANT HEAD =           3.0647
       RIVER LEAKAGE =         169.9321         RIVER LEAKAGE =           0.0000
            RECHARGE =        1547.7500              RECHARGE =          48.0000

           TOTAL OUT =        2784.9355             TOTAL OUT =          51.0647

            IN - OUT =           0.0000              IN - OUT =      -1.3351E-04

 PERCENT DISCREPANCY =           0.00     PERCENT DISCREPANCY =          -0.00






         TIME SUMMARY AT END OF TIME STEP    1 IN STRESS PERIOD   91
                    SECONDS     MINUTES      HOURS       DAYS        YEARS
                    -----------------------------------------------------------
   TIME STEP LENGTH  86400.      1440.0      24.000      1.0000     2.73785E-03
 STRESS PERIOD TIME  86400.      1440.0      24.000      1.0000     2.73785E-03
         TOTAL TIME 7.86240E+06 1.31040E+05  2184.0      91.000     0.24914    
1
1
                            STRESS PERIOD NO.   92, LENGTH =   1.000000    
                            -----------------------------------------------

                              NUMBER OF TIME STEPS =     1

                               MULTIPLIER FOR DELT =     1.000

                            INITIAL TIME STEP SIZE =   1.000000    

 REUSING NON-PARAMETER RIVER REACHES FROM LAST STRESS PERIOD

      2 RIVER REACHES

                 RECHARGE = -4.000000E-03
 
 SOLVING FOR HEAD 

 OUTPUT CONTROL FOR STRESS PERIOD   92   TIME STEP    1
    SAVE HEAD FOR ALL LAYERS

 HEAD WILL BE SAVED ON UNIT   51 AT END OF TIME STEP    1, STRESS PERIOD   92
1
  VOLUMETRIC BUDGET FOR ENTIRE MODEL AT END OF TIME STEP    1, STRESS PERIOD  92
  ------------------------------------------------------------------------------

     CUMULATIVE VOLUMES      L**3       RATES FOR THIS TIME STEP      L**3/T
     ------------------                 ------------------------

           IN:                                      IN:
           ---                                      ---
             STORAGE =        1817.2128               STORAGE =          35.3387
       CONSTANT HEAD =           0.0000         CONSTANT HEAD =           0.0000
       RIVER LEAKAGE =         101.7796         RIVER LEAKAGE =           7.7180
            RECHARGE =         909.0000              RECHARGE =           0.0000

            TOTAL IN =        2827.9924              TOTAL IN =          43.0567

          OUT:                                     OUT:
          ----                                     ----
             STORAGE =         774.3632               STORAGE =           0.0000
       CONSTANT HEAD =         295.9469         CONSTANT HEAD =           3.0568
       RIVER LEAKAGE =         169.9321         RIVER LEAKAGE =           0.0000
            RECHARGE =        1587.7500              RECHARGE =          40.0000

           TOTAL OUT =        2827.9922             TOTAL OUT =          43.0568

            IN - OUT =       2.4414E-04              IN - OUT =      -7.2479E-05

 PERCENT DISCREPANCY =           0.00     PERCENT DISCREPANCY =          -0.00






         TIME SUMMARY AT END OF TIME STEP    1 IN STRESS PERIOD   92
                    SECONDS     MINUTES      HOURS       DAYS        YEARS
                    -----------------------------------------------------------
   TIME STEP LENGTH  86400.      1440.0      24.000      1.0000     2.73785E-03
 STRESS PERIOD TIME  86400.      1440.0      24.000      1.0000     2.73785E-03
         TOTAL TIME 7.94880E+06 1.32480E+05  2208.0      92.000     0.25188    
1
1
                            STRESS PERIOD NO.   93, LENGTH =   1.000000    
                            -----------------------------------------------

                              NUMBER OF TIME STEPS =     1

                               MULTIPLIER FOR DELT =     1.000

                            INITIAL TIME STEP SIZE =   1.000000    

 REUSING NON-PARAMETER RIVER REACHES FROM LAST STRESS PERIOD

      2 RIVER REACHES

                 RECHARGE = -2.700000E-03
 
 SOLVING FOR HEAD 

 OUTPUT CONTROL FOR STRESS PERIOD   93   TIME STEP    1
    SAVE HEAD FOR ALL LAYERS

 HEAD WILL BE SAVED ON UNIT   51 AT END OF TIME STEP    1, STRESS PERIOD   93
1
  VOLUMETRIC BUDGET FOR ENTIRE MODEL AT END OF TIME STEP    1, STRESS PERIOD  93
  ------------------------------------------------------------------------------

     CUMULATIVE VOLUMES      L**3       RATES FOR THIS TIME STEP      L**3/T
     ------------------                 ------------------------

           IN:                                      IN:
           ---                                      ---
             STORAGE =        1840.0425               STORAGE =          22.8298
       CONSTANT HEAD =           0.0000         CONSTANT HEAD =           0.0000
       RIVER LEAKAGE =         109.2361         RIVER LEAKAGE =           7.4565
            RECHARGE =         909.0000              RECHARGE =           0.0000

            TOTAL IN =        2858.2786              TOTAL IN =          30.2862

          OUT:                                     OUT:
          ----                                     ----
             STORAGE =         774.6003               STORAGE =           0.2371
       CONSTANT HEAD =         298.9960         CONSTANT HEAD =           3.0492
       RIVER LEAKAGE =         169.9321         RIVER LEAKAGE =           0.0000
            RECHARGE =        1614.7500              RECHARGE =          27.0000

           TOTAL OUT =        2858.2783             TOTAL OUT =          30.2863

            IN - OUT =       2.4414E-04              IN - OUT =      -2.8610E-05

 PERCENT DISCREPANCY =           0.00     PERCENT DISCREPANCY =          -0.00






         TIME SUMMARY AT END OF TIME STEP    1 IN STRESS PERIOD   93
                    SECONDS     MINUTES      HOURS       DAYS        YEARS
                    -----------------------------------------------------------
   TIME STEP LENGTH  86400.      1440.0      24.000      1.0000     2.73785E-03
 STRESS PERIOD TIME  86400.      1440.0      24.000      1.0000     2.73785E-03
         TOTAL TIME 8.03520E+06 1.33920E+05  2232.0      93.000     0.25462    
1
1
                            STRESS PERIOD NO.   94, LENGTH =   1.000000    
                            -----------------------------------------------

                              NUMBER OF TIME STEPS =     1

                               MULTIPLIER FOR DELT =     1.000

                            INITIAL TIME STEP SIZE =   1.000000    

 REUSING NON-PARAMETER RIVER REACHES FROM LAST STRESS PERIOD

      2 RIVER REACHES

                 RECHARGE = -3.900000E-03
 
 SOLVING FOR HEAD 

 OUTPUT CONTROL FOR STRESS PERIOD   94   TIME STEP    1
    SAVE HEAD FOR ALL LAYERS

 HEAD WILL BE SAVED ON UNIT   51 AT END OF TIME STEP    1, STRESS PERIOD   94
1
  VOLUMETRIC BUDGET FOR ENTIRE MODEL AT END OF TIME STEP    1, STRESS PERIOD  94
  ------------------------------------------------------------------------------

     CUMULATIVE VOLUMES      L**3       RATES FOR THIS TIME STEP      L**3/T
     ------------------                 ------------------------

           IN:                                      IN:
           ---                                      ---
             STORAGE =        1874.2762               STORAGE =          34.2337
       CONSTANT HEAD =           0.0000         CONSTANT HEAD =           0.0000
       RIVER LEAKAGE =         117.0436         RIVER LEAKAGE =           7.8075
            RECHARGE =         909.0000              RECHARGE =           0.0000

            TOTAL IN =        2900.3198              TOTAL IN =          42.0412

          OUT:                                     OUT:
          ----                                     ----
             STORAGE =         774.6003               STORAGE =           0.0000
       CONSTANT HEAD =         302.0372         CONSTANT HEAD =           3.0412
       RIVER LEAKAGE =         169.9321         RIVER LEAKAGE =           0.0000
            RECHARGE =        1653.7500              RECHARGE =          39.0000

           TOTAL OUT =        2900.3196             TOTAL OUT =          42.0412

            IN - OUT =       2.4414E-04              IN - OUT =       1.1444E-05

 PERCENT DISCREPANCY =           0.00     PERCENT DISCREPANCY =           0.00






         TIME SUMMARY AT END OF TIME STEP    1 IN STRESS PERIOD   94
                    SECONDS     MINUTES      HOURS       DAYS        YEARS
                    -----------------------------------------------------------
   TIME STEP LENGTH  86400.      1440.0      24.000      1.0000     2.73785E-03
 STRESS PERIOD TIME  86400.      1440.0      24.000      1.0000     2.73785E-03
         TOTAL TIME 8.12160E+06 1.35360E+05  2256.0      94.000     0.25736    
1
1
                            STRESS PERIOD NO.   95, LENGTH =   1.000000    
                            -----------------------------------------------

                              NUMBER OF TIME STEPS =     1

                               MULTIPLIER FOR DELT =     1.000

                            INITIAL TIME STEP SIZE =   1.000000    

 REUSING NON-PARAMETER RIVER REACHES FROM LAST STRESS PERIOD

      2 RIVER REACHES

                 RECHARGE = -5.000000E-03
 
 SOLVING FOR HEAD 

 OUTPUT CONTROL FOR STRESS PERIOD   95   TIME STEP    1
    SAVE HEAD FOR ALL LAYERS

 HEAD WILL BE SAVED ON UNIT   51 AT END OF TIME STEP    1, STRESS PERIOD   95
1
  VOLUMETRIC BUDGET FOR ENTIRE MODEL AT END OF TIME STEP    1, STRESS PERIOD  95
  ------------------------------------------------------------------------------

     CUMULATIVE VOLUMES      L**3       RATES FOR THIS TIME STEP      L**3/T
     ------------------                 ------------------------

           IN:                                      IN:
           ---                                      ---
             STORAGE =        1918.8566               STORAGE =          44.5803
       CONSTANT HEAD =           0.0000         CONSTANT HEAD =           0.0000
       RIVER LEAKAGE =         125.4960         RIVER LEAKAGE =           8.4524
            RECHARGE =         909.0000              RECHARGE =           0.0000

            TOTAL IN =        2953.3525              TOTAL IN =          53.0327

          OUT:                                     OUT:
          ----                                     ----
             STORAGE =         774.6003               STORAGE =           0.0000
       CONSTANT HEAD =         305.0699         CONSTANT HEAD =           3.0327
       RIVER LEAKAGE =         169.9321         RIVER LEAKAGE =           0.0000
            RECHARGE =        1703.7500              RECHARGE =          50.0000

           TOTAL OUT =        2953.3523             TOTAL OUT =          53.0327

            IN - OUT =       2.4414E-04              IN - OUT =      -1.1444E-05

 PERCENT DISCREPANCY =           0.00     PERCENT DISCREPANCY =          -0.00






         TIME SUMMARY AT END OF TIME STEP    1 IN STRESS PERIOD   95
                    SECONDS     MINUTES      HOURS       DAYS        YEARS
                    -----------------------------------------------------------
   TIME STEP LENGTH  86400.      1440.0      24.000      1.0000     2.73785E-03
 STRESS PERIOD TIME  86400.      1440.0      24.000      1.0000     2.73785E-03
         TOTAL TIME 8.20800E+06 1.36800E+05  2280.0      95.000     0.26010    
1
1
                            STRESS PERIOD NO.   96, LENGTH =   1.000000    
                            -----------------------------------------------

                              NUMBER OF TIME STEPS =     1

                               MULTIPLIER FOR DELT =     1.000

                            INITIAL TIME STEP SIZE =   1.000000    

 REUSING NON-PARAMETER RIVER REACHES FROM LAST STRESS PERIOD

      2 RIVER REACHES

                 RECHARGE = -4.100000E-03
 
 SOLVING FOR HEAD 

 OUTPUT CONTROL FOR STRESS PERIOD   96   TIME STEP    1
    SAVE HEAD FOR ALL LAYERS

 HEAD WILL BE SAVED ON UNIT   51 AT END OF TIME STEP    1, STRESS PERIOD   96
1
  VOLUMETRIC BUDGET FOR ENTIRE MODEL AT END OF TIME STEP    1, STRESS PERIOD  96
  ------------------------------------------------------------------------------

     CUMULATIVE VOLUMES      L**3       RATES FOR THIS TIME STEP      L**3/T
     ------------------                 ------------------------

           IN:                                      IN:
           ---                                      ---
             STORAGE =        1954.2605               STORAGE =          35.4039
       CONSTANT HEAD =           0.0000         CONSTANT HEAD =           0.0000
       RIVER LEAKAGE =         134.1161         RIVER LEAKAGE =           8.6201
            RECHARGE =         909.0000              RECHARGE =           0.0000

            TOTAL IN =        2997.3765              TOTAL IN =          44.0240

          OUT:                                     OUT:
          ----                                     ----
             STORAGE =         774.6003               STORAGE =           0.0000
       CONSTANT HEAD =         308.0941         CONSTANT HEAD =           3.0242
       RIVER LEAKAGE =         169.9321         RIVER LEAKAGE =           0.0000
            RECHARGE =        1744.7500              RECHARGE =          41.0000

           TOTAL OUT =        2997.3765             TOTAL OUT =          44.0242

            IN - OUT =           0.0000              IN - OUT =      -1.5640E-04

 PERCENT DISCREPANCY =           0.00     PERCENT DISCREPANCY =          -0.00






         TIME SUMMARY AT END OF TIME STEP    1 IN STRESS PERIOD   96
                    SECONDS     MINUTES      HOURS       DAYS        YEARS
                    -----------------------------------------------------------
   TIME STEP LENGTH  86400.      1440.0      24.000      1.0000     2.73785E-03
 STRESS PERIOD TIME  86400.      1440.0      24.000      1.0000     2.73785E-03
         TOTAL TIME 8.29440E+06 1.38240E+05  2304.0      96.000     0.26283    
1
1
                            STRESS PERIOD NO.   97, LENGTH =   1.000000    
                            -----------------------------------------------

                              NUMBER OF TIME STEPS =     1

                               MULTIPLIER FOR DELT =     1.000

                            INITIAL TIME STEP SIZE =   1.000000    

 REUSING NON-PARAMETER RIVER REACHES FROM LAST STRESS PERIOD

      2 RIVER REACHES

                 RECHARGE = -1.100000E-03
 
 SOLVING FOR HEAD 

 OUTPUT CONTROL FOR STRESS PERIOD   97   TIME STEP    1
    SAVE HEAD FOR ALL LAYERS

 HEAD WILL BE SAVED ON UNIT   51 AT END OF TIME STEP    1, STRESS PERIOD   97
1
  VOLUMETRIC BUDGET FOR ENTIRE MODEL AT END OF TIME STEP    1, STRESS PERIOD  97
  ------------------------------------------------------------------------------

     CUMULATIVE VOLUMES      L**3       RATES FOR THIS TIME STEP      L**3/T
     ------------------                 ------------------------

           IN:                                      IN:
           ---                                      ---
             STORAGE =        1963.0563               STORAGE =           8.7957
       CONSTANT HEAD =           0.0000         CONSTANT HEAD =           0.0000
       RIVER LEAKAGE =         141.9246         RIVER LEAKAGE =           7.8085
            RECHARGE =         909.0000              RECHARGE =           0.0000

            TOTAL IN =        3013.9810              TOTAL IN =          16.6043

          OUT:                                     OUT:
          ----                                     ----
             STORAGE =         777.1881               STORAGE =           2.5878
       CONSTANT HEAD =         311.1107         CONSTANT HEAD =           3.0166
       RIVER LEAKAGE =         169.9321         RIVER LEAKAGE =           0.0000
            RECHARGE =        1755.7500              RECHARGE =          11.0000

           TOTAL OUT =        3013.9810             TOTAL OUT =          16.6044

            IN - OUT =           0.0000              IN - OUT =      -8.5831E-05

 PERCENT DISCREPANCY =           0.00     PERCENT DISCREPANCY =          -0.00






         TIME SUMMARY AT END OF TIME STEP    1 IN STRESS PERIOD   97
                    SECONDS     MINUTES      HOURS       DAYS        YEARS
                    -----------------------------------------------------------
   TIME STEP LENGTH  86400.      1440.0      24.000      1.0000     2.73785E-03
 STRESS PERIOD TIME  86400.      1440.0      24.000      1.0000     2.73785E-03
         TOTAL TIME 8.38080E+06 1.39680E+05  2328.0      97.000     0.26557    
1
1
                            STRESS PERIOD NO.   98, LENGTH =   1.000000    
                            -----------------------------------------------

                              NUMBER OF TIME STEPS =     1

                               MULTIPLIER FOR DELT =     1.000

                            INITIAL TIME STEP SIZE =   1.000000    

 REUSING NON-PARAMETER RIVER REACHES FROM LAST STRESS PERIOD

      2 RIVER REACHES

                 RECHARGE = -4.000000E-03
 
 SOLVING FOR HEAD 

 OUTPUT CONTROL FOR STRESS PERIOD   98   TIME STEP    1
    SAVE HEAD FOR ALL LAYERS

 HEAD WILL BE SAVED ON UNIT   51 AT END OF TIME STEP    1, STRESS PERIOD   98
1
  VOLUMETRIC BUDGET FOR ENTIRE MODEL AT END OF TIME STEP    1, STRESS PERIOD  98
  ------------------------------------------------------------------------------

     CUMULATIVE VOLUMES      L**3       RATES FOR THIS TIME STEP      L**3/T
     ------------------                 ------------------------

           IN:                                      IN:
           ---                                      ---
             STORAGE =        1997.6665               STORAGE =          34.6103
       CONSTANT HEAD =           0.0000         CONSTANT HEAD =           0.0000
       RIVER LEAKAGE =         150.3226         RIVER LEAKAGE =           8.3980
            RECHARGE =         909.0000              RECHARGE =           0.0000

            TOTAL IN =        3056.9890              TOTAL IN =          43.0083

          OUT:                                     OUT:
          ----                                     ----
             STORAGE =         777.1881               STORAGE =           0.0000
       CONSTANT HEAD =         314.1189         CONSTANT HEAD =           3.0083
       RIVER LEAKAGE =         169.9321         RIVER LEAKAGE =           0.0000
            RECHARGE =        1795.7500              RECHARGE =          40.0000

           TOTAL OUT =        3056.9893             TOTAL OUT =          43.0083

            IN - OUT =      -2.4414E-04              IN - OUT =      -3.0518E-05

 PERCENT DISCREPANCY =          -0.00     PERCENT DISCREPANCY =          -0.00






         TIME SUMMARY AT END OF TIME STEP    1 IN STRESS PERIOD   98
                    SECONDS     MINUTES      HOURS       DAYS        YEARS
                    -----------------------------------------------------------
   TIME STEP LENGTH  86400.      1440.0      24.000      1.0000     2.73785E-03
 STRESS PERIOD TIME  86400.      1440.0      24.000      1.0000     2.73785E-03
         TOTAL TIME 8.46720E+06 1.41120E+05  2352.0      98.000     0.26831    
1
1
                            STRESS PERIOD NO.   99, LENGTH =   1.000000    
                            -----------------------------------------------

                              NUMBER OF TIME STEPS =     1

                               MULTIPLIER FOR DELT =     1.000

                            INITIAL TIME STEP SIZE =   1.000000    

 REUSING NON-PARAMETER RIVER REACHES FROM LAST STRESS PERIOD

      2 RIVER REACHES

                 RECHARGE = -3.500000E-03
 
 SOLVING FOR HEAD 

 OUTPUT CONTROL FOR STRESS PERIOD   99   TIME STEP    1
    SAVE HEAD FOR ALL LAYERS

 HEAD WILL BE SAVED ON UNIT   51 AT END OF TIME STEP    1, STRESS PERIOD   99
1
  VOLUMETRIC BUDGET FOR ENTIRE MODEL AT END OF TIME STEP    1, STRESS PERIOD  99
  ------------------------------------------------------------------------------

     CUMULATIVE VOLUMES      L**3       RATES FOR THIS TIME STEP      L**3/T
     ------------------                 ------------------------

           IN:                                      IN:
           ---                                      ---
             STORAGE =        2027.0868               STORAGE =          29.4203
       CONSTANT HEAD =           0.0000         CONSTANT HEAD =           0.0000
       RIVER LEAKAGE =         158.9023         RIVER LEAKAGE =           8.5797
            RECHARGE =         909.0000              RECHARGE =           0.0000

            TOTAL IN =        3094.9890              TOTAL IN =          38.0000

          OUT:                                     OUT:
          ----                                     ----
             STORAGE =         777.1881               STORAGE =           0.0000
       CONSTANT HEAD =         317.1189         CONSTANT HEAD =           2.9999
       RIVER LEAKAGE =         169.9321         RIVER LEAKAGE =           0.0000
            RECHARGE =        1830.7500              RECHARGE =          35.0000

           TOTAL OUT =        3094.9893             TOTAL OUT =          37.9999

            IN - OUT =      -2.4414E-04              IN - OUT =       7.6294E-05

 PERCENT DISCREPANCY =          -0.00     PERCENT DISCREPANCY =           0.00






         TIME SUMMARY AT END OF TIME STEP    1 IN STRESS PERIOD   99
                    SECONDS     MINUTES      HOURS       DAYS        YEARS
                    -----------------------------------------------------------
   TIME STEP LENGTH  86400.      1440.0      24.000      1.0000     2.73785E-03
 STRESS PERIOD TIME  86400.      1440.0      24.000      1.0000     2.73785E-03
         TOTAL TIME 8.55360E+06 1.42560E+05  2376.0      99.000     0.27105    
1
1
                            STRESS PERIOD NO.  100, LENGTH =   1.000000    
                            -----------------------------------------------

                              NUMBER OF TIME STEPS =     1

                               MULTIPLIER FOR DELT =     1.000

                            INITIAL TIME STEP SIZE =   1.000000    

 REUSING NON-PARAMETER RIVER REACHES FROM LAST STRESS PERIOD

      2 RIVER REACHES

                 RECHARGE =  8.800000E-03
 
 SOLVING FOR HEAD 

 OUTPUT CONTROL FOR STRESS PERIOD  100   TIME STEP    1
    SAVE HEAD FOR ALL LAYERS

 HEAD WILL BE SAVED ON UNIT   51 AT END OF TIME STEP    1, STRESS PERIOD  100
1
  VOLUMETRIC BUDGET FOR ENTIRE MODEL AT END OF TIME STEP    1, STRESS PERIOD 100
  ------------------------------------------------------------------------------

     CUMULATIVE VOLUMES      L**3       RATES FOR THIS TIME STEP      L**3/T
     ------------------                 ------------------------

           IN:                                      IN:
           ---                                      ---
             STORAGE =        2027.5798               STORAGE =           0.4931
       CONSTANT HEAD =           0.0000         CONSTANT HEAD =           0.0000
       RIVER LEAKAGE =         163.4224         RIVER LEAKAGE =           4.5201
            RECHARGE =         997.0000              RECHARGE =          88.0000

            TOTAL IN =        3188.0022              TOTAL IN =          93.0132

          OUT:                                     OUT:
          ----                                     ----
             STORAGE =         867.2056               STORAGE =          90.0175
       CONSTANT HEAD =         320.1146         CONSTANT HEAD =           2.9958
       RIVER LEAKAGE =         169.9321         RIVER LEAKAGE =           0.0000
            RECHARGE =        1830.7500              RECHARGE =           0.0000

           TOTAL OUT =        3188.0024             TOTAL OUT =          93.0132

            IN - OUT =      -2.4414E-04              IN - OUT =      -7.6294E-06

 PERCENT DISCREPANCY =          -0.00     PERCENT DISCREPANCY =          -0.00






         TIME SUMMARY AT END OF TIME STEP    1 IN STRESS PERIOD  100
                    SECONDS     MINUTES      HOURS       DAYS        YEARS
                    -----------------------------------------------------------
   TIME STEP LENGTH  86400.      1440.0      24.000      1.0000     2.73785E-03
 STRESS PERIOD TIME  86400.      1440.0      24.000      1.0000     2.73785E-03
         TOTAL TIME 8.64000E+06 1.44000E+05  2400.0      100.00     0.27379    
1
1
                            STRESS PERIOD NO.  101, LENGTH =   1.000000    
                            -----------------------------------------------

                              NUMBER OF TIME STEPS =     1

                               MULTIPLIER FOR DELT =     1.000

                            INITIAL TIME STEP SIZE =   1.000000    

 REUSING NON-PARAMETER RIVER REACHES FROM LAST STRESS PERIOD

      2 RIVER REACHES

                 RECHARGE =  3.400000E-03
 
 SOLVING FOR HEAD 

 OUTPUT CONTROL FOR STRESS PERIOD  101   TIME STEP    1
    SAVE HEAD FOR ALL LAYERS

 HEAD WILL BE SAVED ON UNIT   51 AT END OF TIME STEP    1, STRESS PERIOD  101
1
  VOLUMETRIC BUDGET FOR ENTIRE MODEL AT END OF TIME STEP    1, STRESS PERIOD 101
  ------------------------------------------------------------------------------

     CUMULATIVE VOLUMES      L**3       RATES FOR THIS TIME STEP      L**3/T
     ------------------                 ------------------------

           IN:                                      IN:
           ---                                      ---
             STORAGE =        2028.0448               STORAGE =           0.4649
       CONSTANT HEAD =           0.0000         CONSTANT HEAD =           0.0000
       RIVER LEAKAGE =         167.3553         RIVER LEAKAGE =           3.9329
            RECHARGE =        1031.0000              RECHARGE =          34.0000

            TOTAL IN =        3226.4001              TOTAL IN =          38.3978

          OUT:                                     OUT:
          ----                                     ----
             STORAGE =         902.6118               STORAGE =          35.4062
       CONSTANT HEAD =         323.1061         CONSTANT HEAD =           2.9915
       RIVER LEAKAGE =         169.9321         RIVER LEAKAGE =           0.0000
            RECHARGE =        1830.7500              RECHARGE =           0.0000

           TOTAL OUT =        3226.3999             TOTAL OUT =          38.3978

            IN - OUT =       2.4414E-04              IN - OUT =       8.7738E-05

 PERCENT DISCREPANCY =           0.00     PERCENT DISCREPANCY =           0.00






         TIME SUMMARY AT END OF TIME STEP    1 IN STRESS PERIOD  101
                    SECONDS     MINUTES      HOURS       DAYS        YEARS
                    -----------------------------------------------------------
   TIME STEP LENGTH  86400.      1440.0      24.000      1.0000     2.73785E-03
 STRESS PERIOD TIME  86400.      1440.0      24.000      1.0000     2.73785E-03
         TOTAL TIME 8.72640E+06 1.45440E+05  2424.0      101.00     0.27652    
1
1
                            STRESS PERIOD NO.  102, LENGTH =   1.000000    
                            -----------------------------------------------

                              NUMBER OF TIME STEPS =     1

                               MULTIPLIER FOR DELT =     1.000

                            INITIAL TIME STEP SIZE =   1.000000    

 REUSING NON-PARAMETER RIVER REACHES FROM LAST STRESS PERIOD

      2 RIVER REACHES

                 RECHARGE = -2.700000E-03
 
 SOLVING FOR HEAD 

 OUTPUT CONTROL FOR STRESS PERIOD  102   TIME STEP    1
    SAVE HEAD FOR ALL LAYERS

 HEAD WILL BE SAVED ON UNIT   51 AT END OF TIME STEP    1, STRESS PERIOD  102
1
  VOLUMETRIC BUDGET FOR ENTIRE MODEL AT END OF TIME STEP    1, STRESS PERIOD 102
  ------------------------------------------------------------------------------

     CUMULATIVE VOLUMES      L**3       RATES FOR THIS TIME STEP      L**3/T
     ------------------                 ------------------------

           IN:                                      IN:
           ---                                      ---
             STORAGE =        2052.6885               STORAGE =          24.6437
       CONSTANT HEAD =           0.0000         CONSTANT HEAD =           0.0000
       RIVER LEAKAGE =         172.6972         RIVER LEAKAGE =           5.3419
            RECHARGE =        1031.0000              RECHARGE =           0.0000

            TOTAL IN =        3256.3857              TOTAL IN =          29.9856

          OUT:                                     OUT:
          ----                                     ----
             STORAGE =         902.6118               STORAGE =           0.0000
       CONSTANT HEAD =         326.0917         CONSTANT HEAD =           2.9856
       RIVER LEAKAGE =         169.9321         RIVER LEAKAGE =           0.0000
            RECHARGE =        1857.7500              RECHARGE =          27.0000

           TOTAL OUT =        3256.3857             TOTAL OUT =          29.9856

            IN - OUT =           0.0000              IN - OUT =      -9.5367E-06

 PERCENT DISCREPANCY =           0.00     PERCENT DISCREPANCY =          -0.00






         TIME SUMMARY AT END OF TIME STEP    1 IN STRESS PERIOD  102
                    SECONDS     MINUTES      HOURS       DAYS        YEARS
                    -----------------------------------------------------------
   TIME STEP LENGTH  86400.      1440.0      24.000      1.0000     2.73785E-03
 STRESS PERIOD TIME  86400.      1440.0      24.000      1.0000     2.73785E-03
         TOTAL TIME 8.81280E+06 1.46880E+05  2448.0      102.00     0.27926    
1
1
                            STRESS PERIOD NO.  103, LENGTH =   1.000000    
                            -----------------------------------------------

                              NUMBER OF TIME STEPS =     1

                               MULTIPLIER FOR DELT =     1.000

                            INITIAL TIME STEP SIZE =   1.000000    

 REUSING NON-PARAMETER RIVER REACHES FROM LAST STRESS PERIOD

      2 RIVER REACHES

                 RECHARGE =  1.840000E-02
 
 SOLVING FOR HEAD 

 OUTPUT CONTROL FOR STRESS PERIOD  103   TIME STEP    1
    SAVE HEAD FOR ALL LAYERS

 HEAD WILL BE SAVED ON UNIT   51 AT END OF TIME STEP    1, STRESS PERIOD  103
1
  VOLUMETRIC BUDGET FOR ENTIRE MODEL AT END OF TIME STEP    1, STRESS PERIOD 103
  ------------------------------------------------------------------------------

     CUMULATIVE VOLUMES      L**3       RATES FOR THIS TIME STEP      L**3/T
     ------------------                 ------------------------

           IN:                                      IN:
           ---                                      ---
             STORAGE =        2053.0439               STORAGE =           0.3555
       CONSTANT HEAD =           0.0000         CONSTANT HEAD =           0.0000
       RIVER LEAKAGE =         172.6972         RIVER LEAKAGE =           0.0000
            RECHARGE =        1215.0000              RECHARGE =         184.0000

            TOTAL IN =        3440.7412              TOTAL IN =         184.3555

          OUT:                                     OUT:
          ----                                     ----
             STORAGE =        1082.6740               STORAGE =         180.0621
       CONSTANT HEAD =         329.0782         CONSTANT HEAD =           2.9865
       RIVER LEAKAGE =         171.2389         RIVER LEAKAGE =           1.3068
            RECHARGE =        1857.7500              RECHARGE =           0.0000

           TOTAL OUT =        3440.7412             TOTAL OUT =         184.3555

            IN - OUT =           0.0000              IN - OUT =       4.5776E-05

 PERCENT DISCREPANCY =           0.00     PERCENT DISCREPANCY =           0.00






         TIME SUMMARY AT END OF TIME STEP    1 IN STRESS PERIOD  103
                    SECONDS     MINUTES      HOURS       DAYS        YEARS
                    -----------------------------------------------------------
   TIME STEP LENGTH  86400.      1440.0      24.000      1.0000     2.73785E-03
 STRESS PERIOD TIME  86400.      1440.0      24.000      1.0000     2.73785E-03
         TOTAL TIME 8.89920E+06 1.48320E+05  2472.0      103.00     0.28200    
1
1
                            STRESS PERIOD NO.  104, LENGTH =   1.000000    
                            -----------------------------------------------

                              NUMBER OF TIME STEPS =     1

                               MULTIPLIER FOR DELT =     1.000

                            INITIAL TIME STEP SIZE =   1.000000    

 REUSING NON-PARAMETER RIVER REACHES FROM LAST STRESS PERIOD

      2 RIVER REACHES

                 RECHARGE = -4.200000E-03
 
 SOLVING FOR HEAD 

 OUTPUT CONTROL FOR STRESS PERIOD  104   TIME STEP    1
    SAVE HEAD FOR ALL LAYERS

 HEAD WILL BE SAVED ON UNIT   51 AT END OF TIME STEP    1, STRESS PERIOD  104
1
  VOLUMETRIC BUDGET FOR ENTIRE MODEL AT END OF TIME STEP    1, STRESS PERIOD 104
  ------------------------------------------------------------------------------

     CUMULATIVE VOLUMES      L**3       RATES FOR THIS TIME STEP      L**3/T
     ------------------                 ------------------------

           IN:                                      IN:
           ---                                      ---
             STORAGE =        2095.5986               STORAGE =          42.5548
       CONSTANT HEAD =           0.0000         CONSTANT HEAD =           0.0000
       RIVER LEAKAGE =         175.1248         RIVER LEAKAGE =           2.4276
            RECHARGE =        1215.0000              RECHARGE =           0.0000

            TOTAL IN =        3485.7234              TOTAL IN =          44.9824

          OUT:                                     OUT:
          ----                                     ----
             STORAGE =        1082.6740               STORAGE =           0.0000
       CONSTANT HEAD =         332.0607         CONSTANT HEAD =           2.9826
       RIVER LEAKAGE =         171.2389         RIVER LEAKAGE =           0.0000
            RECHARGE =        1899.7500              RECHARGE =          42.0000

           TOTAL OUT =        3485.7236             TOTAL OUT =          44.9826

            IN - OUT =      -2.4414E-04              IN - OUT =      -1.4877E-04

 PERCENT DISCREPANCY =          -0.00     PERCENT DISCREPANCY =          -0.00






         TIME SUMMARY AT END OF TIME STEP    1 IN STRESS PERIOD  104
                    SECONDS     MINUTES      HOURS       DAYS        YEARS
                    -----------------------------------------------------------
   TIME STEP LENGTH  86400.      1440.0      24.000      1.0000     2.73785E-03
 STRESS PERIOD TIME  86400.      1440.0      24.000      1.0000     2.73785E-03
         TOTAL TIME 8.98560E+06 1.49760E+05  2496.0      104.00     0.28474    
1
1
                            STRESS PERIOD NO.  105, LENGTH =   1.000000    
                            -----------------------------------------------

                              NUMBER OF TIME STEPS =     1

                               MULTIPLIER FOR DELT =     1.000

                            INITIAL TIME STEP SIZE =   1.000000    

 REUSING NON-PARAMETER RIVER REACHES FROM LAST STRESS PERIOD

      2 RIVER REACHES

                 RECHARGE = -3.575000E-03
 
 SOLVING FOR HEAD 

 OUTPUT CONTROL FOR STRESS PERIOD  105   TIME STEP    1
    SAVE HEAD FOR ALL LAYERS

 HEAD WILL BE SAVED ON UNIT   51 AT END OF TIME STEP    1, STRESS PERIOD  105
1
  VOLUMETRIC BUDGET FOR ENTIRE MODEL AT END OF TIME STEP    1, STRESS PERIOD 105
  ------------------------------------------------------------------------------

     CUMULATIVE VOLUMES      L**3       RATES FOR THIS TIME STEP      L**3/T
     ------------------                 ------------------------

           IN:                                      IN:
           ---                                      ---
             STORAGE =        2130.4348               STORAGE =          34.8363
       CONSTANT HEAD =           0.0000         CONSTANT HEAD =           0.0000
       RIVER LEAKAGE =         179.0159         RIVER LEAKAGE =           3.8911
            RECHARGE =        1215.0000              RECHARGE =           0.0000

            TOTAL IN =        3524.4507              TOTAL IN =          38.7274

          OUT:                                     OUT:
          ----                                     ----
             STORAGE =        1082.6740               STORAGE =           0.0000
       CONSTANT HEAD =         335.0382         CONSTANT HEAD =           2.9775
       RIVER LEAKAGE =         171.2389         RIVER LEAKAGE =           0.0000
            RECHARGE =        1935.5000              RECHARGE =          35.7500

           TOTAL OUT =        3524.4512             TOTAL OUT =          38.7275

            IN - OUT =      -4.8828E-04              IN - OUT =      -8.3923E-05

 PERCENT DISCREPANCY =          -0.00     PERCENT DISCREPANCY =          -0.00






         TIME SUMMARY AT END OF TIME STEP    1 IN STRESS PERIOD  105
                    SECONDS     MINUTES      HOURS       DAYS        YEARS
                    -----------------------------------------------------------
   TIME STEP LENGTH  86400.      1440.0      24.000      1.0000     2.73785E-03
 STRESS PERIOD TIME  86400.      1440.0      24.000      1.0000     2.73785E-03
         TOTAL TIME 9.07200E+06 1.51200E+05  2520.0      105.00     0.28747    
1
1
                            STRESS PERIOD NO.  106, LENGTH =   1.000000    
                            -----------------------------------------------

                              NUMBER OF TIME STEPS =     1

                               MULTIPLIER FOR DELT =     1.000

                            INITIAL TIME STEP SIZE =   1.000000    

 REUSING NON-PARAMETER RIVER REACHES FROM LAST STRESS PERIOD

      2 RIVER REACHES

                 RECHARGE = -1.575000E-03
 
 SOLVING FOR HEAD 

 OUTPUT CONTROL FOR STRESS PERIOD  106   TIME STEP    1
    SAVE HEAD FOR ALL LAYERS

 HEAD WILL BE SAVED ON UNIT   51 AT END OF TIME STEP    1, STRESS PERIOD  106
1
  VOLUMETRIC BUDGET FOR ENTIRE MODEL AT END OF TIME STEP    1, STRESS PERIOD 106
  ------------------------------------------------------------------------------

     CUMULATIVE VOLUMES      L**3       RATES FOR THIS TIME STEP      L**3/T
     ------------------                 ------------------------

           IN:                                      IN:
           ---                                      ---
             STORAGE =        2145.0234               STORAGE =          14.5886
       CONSTANT HEAD =           0.0000         CONSTANT HEAD =           0.0000
       RIVER LEAKAGE =         183.1497         RIVER LEAKAGE =           4.1338
            RECHARGE =        1215.0000              RECHARGE =           0.0000

            TOTAL IN =        3543.1731              TOTAL IN =          18.7224

          OUT:                                     OUT:
          ----                                     ----
             STORAGE =        1082.6740               STORAGE =           0.0000
       CONSTANT HEAD =         338.0107         CONSTANT HEAD =           2.9725
       RIVER LEAKAGE =         171.2389         RIVER LEAKAGE =           0.0000
            RECHARGE =        1951.2500              RECHARGE =          15.7500

           TOTAL OUT =        3543.1736             TOTAL OUT =          18.7225

            IN - OUT =      -4.8828E-04              IN - OUT =      -9.3460E-05

 PERCENT DISCREPANCY =          -0.00     PERCENT DISCREPANCY =          -0.00






         TIME SUMMARY AT END OF TIME STEP    1 IN STRESS PERIOD  106
                    SECONDS     MINUTES      HOURS       DAYS        YEARS
                    -----------------------------------------------------------
   TIME STEP LENGTH  86400.      1440.0      24.000      1.0000     2.73785E-03
 STRESS PERIOD TIME  86400.      1440.0      24.000      1.0000     2.73785E-03
         TOTAL TIME 9.15840E+06 1.52640E+05  2544.0      106.00     0.29021    
1
1
                            STRESS PERIOD NO.  107, LENGTH =   1.000000    
                            -----------------------------------------------

                              NUMBER OF TIME STEPS =     1

                               MULTIPLIER FOR DELT =     1.000

                            INITIAL TIME STEP SIZE =   1.000000    

 REUSING NON-PARAMETER RIVER REACHES FROM LAST STRESS PERIOD

      2 RIVER REACHES

                 RECHARGE = -3.600000E-03
 
 SOLVING FOR HEAD 

 OUTPUT CONTROL FOR STRESS PERIOD  107   TIME STEP    1
    SAVE HEAD FOR ALL LAYERS

 HEAD WILL BE SAVED ON UNIT   51 AT END OF TIME STEP    1, STRESS PERIOD  107
1
  VOLUMETRIC BUDGET FOR ENTIRE MODEL AT END OF TIME STEP    1, STRESS PERIOD 107
  ------------------------------------------------------------------------------

     CUMULATIVE VOLUMES      L**3       RATES FOR THIS TIME STEP      L**3/T
     ------------------                 ------------------------

           IN:                                      IN:
           ---                                      ---
             STORAGE =        2178.8948               STORAGE =          33.8713
       CONSTANT HEAD =           0.0000         CONSTANT HEAD =           0.0000
       RIVER LEAKAGE =         188.2451         RIVER LEAKAGE =           5.0954
            RECHARGE =        1215.0000              RECHARGE =           0.0000

            TOTAL IN =        3582.1399              TOTAL IN =          38.9666

          OUT:                                     OUT:
          ----                                     ----
             STORAGE =        1082.6740               STORAGE =           0.0000
       CONSTANT HEAD =         340.9774         CONSTANT HEAD =           2.9667
       RIVER LEAKAGE =         171.2389         RIVER LEAKAGE =           0.0000
            RECHARGE =        1987.2500              RECHARGE =          36.0000

           TOTAL OUT =        3582.1401             TOTAL OUT =          38.9667

            IN - OUT =      -2.4414E-04              IN - OUT =      -3.8147E-05

 PERCENT DISCREPANCY =          -0.00     PERCENT DISCREPANCY =          -0.00






         TIME SUMMARY AT END OF TIME STEP    1 IN STRESS PERIOD  107
                    SECONDS     MINUTES      HOURS       DAYS        YEARS
                    -----------------------------------------------------------
   TIME STEP LENGTH  86400.      1440.0      24.000      1.0000     2.73785E-03
 STRESS PERIOD TIME  86400.      1440.0      24.000      1.0000     2.73785E-03
         TOTAL TIME 9.24480E+06 1.54080E+05  2568.0      107.00     0.29295    
1
1
                            STRESS PERIOD NO.  108, LENGTH =   1.000000    
                            -----------------------------------------------

                              NUMBER OF TIME STEPS =     1

                               MULTIPLIER FOR DELT =     1.000

                            INITIAL TIME STEP SIZE =   1.000000    

 REUSING NON-PARAMETER RIVER REACHES FROM LAST STRESS PERIOD

      2 RIVER REACHES

                 RECHARGE = -5.200000E-03
 
 SOLVING FOR HEAD 

 OUTPUT CONTROL FOR STRESS PERIOD  108   TIME STEP    1
    SAVE HEAD FOR ALL LAYERS

 HEAD WILL BE SAVED ON UNIT   51 AT END OF TIME STEP    1, STRESS PERIOD  108
1
  VOLUMETRIC BUDGET FOR ENTIRE MODEL AT END OF TIME STEP    1, STRESS PERIOD 108
  ------------------------------------------------------------------------------

     CUMULATIVE VOLUMES      L**3       RATES FOR THIS TIME STEP      L**3/T
     ------------------                 ------------------------

           IN:                                      IN:
           ---                                      ---
             STORAGE =        2227.5515               STORAGE =          48.6568
       CONSTANT HEAD =           0.0000         CONSTANT HEAD =           0.0000
       RIVER LEAKAGE =         194.5481         RIVER LEAKAGE =           6.3030
            RECHARGE =        1215.0000              RECHARGE =           0.0000

            TOTAL IN =        3637.0996              TOTAL IN =          54.9599

          OUT:                                     OUT:
          ----                                     ----
             STORAGE =        1082.6740               STORAGE =           0.0000
       CONSTANT HEAD =         343.9372         CONSTANT HEAD =           2.9598
       RIVER LEAKAGE =         171.2389         RIVER LEAKAGE =           0.0000
            RECHARGE =        2039.2500              RECHARGE =          52.0000

           TOTAL OUT =        3637.1001             TOTAL OUT =          54.9598

            IN - OUT =      -4.8828E-04              IN - OUT =       3.4332E-05

 PERCENT DISCREPANCY =          -0.00     PERCENT DISCREPANCY =           0.00






         TIME SUMMARY AT END OF TIME STEP    1 IN STRESS PERIOD  108
                    SECONDS     MINUTES      HOURS       DAYS        YEARS
                    -----------------------------------------------------------
   TIME STEP LENGTH  86400.      1440.0      24.000      1.0000     2.73785E-03
 STRESS PERIOD TIME  86400.      1440.0      24.000      1.0000     2.73785E-03
         TOTAL TIME 9.33120E+06 1.55520E+05  2592.0      108.00     0.29569    
1
1
                            STRESS PERIOD NO.  109, LENGTH =   1.000000    
                            -----------------------------------------------

                              NUMBER OF TIME STEPS =     1

                               MULTIPLIER FOR DELT =     1.000

                            INITIAL TIME STEP SIZE =   1.000000    

 REUSING NON-PARAMETER RIVER REACHES FROM LAST STRESS PERIOD

      2 RIVER REACHES

                 RECHARGE = -4.600000E-03
 
 SOLVING FOR HEAD 

 OUTPUT CONTROL FOR STRESS PERIOD  109   TIME STEP    1
    SAVE HEAD FOR ALL LAYERS

 HEAD WILL BE SAVED ON UNIT   51 AT END OF TIME STEP    1, STRESS PERIOD  109
1
  VOLUMETRIC BUDGET FOR ENTIRE MODEL AT END OF TIME STEP    1, STRESS PERIOD 109
  ------------------------------------------------------------------------------

     CUMULATIVE VOLUMES      L**3       RATES FOR THIS TIME STEP      L**3/T
     ------------------                 ------------------------

           IN:                                      IN:
           ---                                      ---
             STORAGE =        2269.5457               STORAGE =          41.9942
       CONSTANT HEAD =           0.0000         CONSTANT HEAD =           0.0000
       RIVER LEAKAGE =         201.5065         RIVER LEAKAGE =           6.9584
            RECHARGE =        1215.0000              RECHARGE =           0.0000

            TOTAL IN =        3686.0522              TOTAL IN =          48.9526

          OUT:                                     OUT:
          ----                                     ----
             STORAGE =        1082.6740               STORAGE =           0.0000
       CONSTANT HEAD =         346.8898         CONSTANT HEAD =           2.9526
       RIVER LEAKAGE =         171.2389         RIVER LEAKAGE =           0.0000
            RECHARGE =        2085.2500              RECHARGE =          46.0000

           TOTAL OUT =        3686.0527             TOTAL OUT =          48.9526

            IN - OUT =      -4.8828E-04              IN - OUT =      -1.9073E-05

 PERCENT DISCREPANCY =          -0.00     PERCENT DISCREPANCY =          -0.00






         TIME SUMMARY AT END OF TIME STEP    1 IN STRESS PERIOD  109
                    SECONDS     MINUTES      HOURS       DAYS        YEARS
                    -----------------------------------------------------------
   TIME STEP LENGTH  86400.      1440.0      24.000      1.0000     2.73785E-03
 STRESS PERIOD TIME  86400.      1440.0      24.000      1.0000     2.73785E-03
         TOTAL TIME 9.41760E+06 1.56960E+05  2616.0      109.00     0.29843    
1
1
                            STRESS PERIOD NO.  110, LENGTH =   1.000000    
                            -----------------------------------------------

                              NUMBER OF TIME STEPS =     1

                               MULTIPLIER FOR DELT =     1.000

                            INITIAL TIME STEP SIZE =   1.000000    

 REUSING NON-PARAMETER RIVER REACHES FROM LAST STRESS PERIOD

      2 RIVER REACHES

                 RECHARGE = -2.300000E-03
 
 SOLVING FOR HEAD 

 OUTPUT CONTROL FOR STRESS PERIOD  110   TIME STEP    1
    SAVE HEAD FOR ALL LAYERS

 HEAD WILL BE SAVED ON UNIT   51 AT END OF TIME STEP    1, STRESS PERIOD  110
1
  VOLUMETRIC BUDGET FOR ENTIRE MODEL AT END OF TIME STEP    1, STRESS PERIOD 110
  ------------------------------------------------------------------------------

     CUMULATIVE VOLUMES      L**3       RATES FOR THIS TIME STEP      L**3/T
     ------------------                 ------------------------

           IN:                                      IN:
           ---                                      ---
             STORAGE =        2288.8333               STORAGE =          19.2877
       CONSTANT HEAD =           0.0000         CONSTANT HEAD =           0.0000
       RIVER LEAKAGE =         208.2473         RIVER LEAKAGE =           6.7408
            RECHARGE =        1215.0000              RECHARGE =           0.0000

            TOTAL IN =        3712.0806              TOTAL IN =          26.0285

          OUT:                                     OUT:
          ----                                     ----
             STORAGE =        1082.7566               STORAGE =       8.2692E-02
       CONSTANT HEAD =         349.8357         CONSTANT HEAD =           2.9458
       RIVER LEAKAGE =         171.2389         RIVER LEAKAGE =           0.0000
            RECHARGE =        2108.2500              RECHARGE =          23.0000

           TOTAL OUT =        3712.0811             TOTAL OUT =          26.0285

            IN - OUT =      -4.8828E-04              IN - OUT =      -2.2888E-05

 PERCENT DISCREPANCY =          -0.00     PERCENT DISCREPANCY =          -0.00






         TIME SUMMARY AT END OF TIME STEP    1 IN STRESS PERIOD  110
                    SECONDS     MINUTES      HOURS       DAYS        YEARS
                    -----------------------------------------------------------
   TIME STEP LENGTH  86400.      1440.0      24.000      1.0000     2.73785E-03
 STRESS PERIOD TIME  86400.      1440.0      24.000      1.0000     2.73785E-03
         TOTAL TIME 9.50400E+06 1.58400E+05  2640.0      110.00     0.30116    
1
1
                            STRESS PERIOD NO.  111, LENGTH =   1.000000    
                            -----------------------------------------------

                              NUMBER OF TIME STEPS =     1

                               MULTIPLIER FOR DELT =     1.000

                            INITIAL TIME STEP SIZE =   1.000000    

 REUSING NON-PARAMETER RIVER REACHES FROM LAST STRESS PERIOD

      2 RIVER REACHES

                 RECHARGE = -2.900000E-03
 
 SOLVING FOR HEAD 

 OUTPUT CONTROL FOR STRESS PERIOD  111   TIME STEP    1
    SAVE HEAD FOR ALL LAYERS

 HEAD WILL BE SAVED ON UNIT   51 AT END OF TIME STEP    1, STRESS PERIOD  111
1
  VOLUMETRIC BUDGET FOR ENTIRE MODEL AT END OF TIME STEP    1, STRESS PERIOD 111
  ------------------------------------------------------------------------------

     CUMULATIVE VOLUMES      L**3       RATES FOR THIS TIME STEP      L**3/T
     ------------------                 ------------------------

           IN:                                      IN:
           ---                                      ---
             STORAGE =        2313.8057               STORAGE =          24.9725
       CONSTANT HEAD =           0.0000         CONSTANT HEAD =           0.0000
       RIVER LEAKAGE =         215.2137         RIVER LEAKAGE =           6.9664
            RECHARGE =        1215.0000              RECHARGE =           0.0000

            TOTAL IN =        3744.0193              TOTAL IN =          31.9389

          OUT:                                     OUT:
          ----                                     ----
             STORAGE =        1082.7566               STORAGE =           0.0000
       CONSTANT HEAD =         352.7745         CONSTANT HEAD =           2.9389
       RIVER LEAKAGE =         171.2389         RIVER LEAKAGE =           0.0000
            RECHARGE =        2137.2500              RECHARGE =          29.0000

           TOTAL OUT =        3744.0200             TOTAL OUT =          31.9389

            IN - OUT =      -7.3242E-04              IN - OUT =       2.0981E-05

 PERCENT DISCREPANCY =          -0.00     PERCENT DISCREPANCY =           0.00






         TIME SUMMARY AT END OF TIME STEP    1 IN STRESS PERIOD  111
                    SECONDS     MINUTES      HOURS       DAYS        YEARS
                    -----------------------------------------------------------
   TIME STEP LENGTH  86400.      1440.0      24.000      1.0000     2.73785E-03
 STRESS PERIOD TIME  86400.      1440.0      24.000      1.0000     2.73785E-03
         TOTAL TIME 9.59040E+06 1.59840E+05  2664.0      111.00     0.30390    
1
1
                            STRESS PERIOD NO.  112, LENGTH =   1.000000    
                            -----------------------------------------------

                              NUMBER OF TIME STEPS =     1

                               MULTIPLIER FOR DELT =     1.000

                            INITIAL TIME STEP SIZE =   1.000000    

 REUSING NON-PARAMETER RIVER REACHES FROM LAST STRESS PERIOD

      2 RIVER REACHES

                 RECHARGE = -4.800000E-03
 
 SOLVING FOR HEAD 

 OUTPUT CONTROL FOR STRESS PERIOD  112   TIME STEP    1
    SAVE HEAD FOR ALL LAYERS

 HEAD WILL BE SAVED ON UNIT   51 AT END OF TIME STEP    1, STRESS PERIOD  112
1
  VOLUMETRIC BUDGET FOR ENTIRE MODEL AT END OF TIME STEP    1, STRESS PERIOD 112
  ------------------------------------------------------------------------------

     CUMULATIVE VOLUMES      L**3       RATES FOR THIS TIME STEP      L**3/T
     ------------------                 ------------------------

           IN:                                      IN:
           ---                                      ---
             STORAGE =        2356.9065               STORAGE =          43.1007
       CONSTANT HEAD =           0.0000         CONSTANT HEAD =           0.0000
       RIVER LEAKAGE =         223.0441         RIVER LEAKAGE =           7.8304
            RECHARGE =        1215.0000              RECHARGE =           0.0000

            TOTAL IN =        3794.9507              TOTAL IN =          50.9312

          OUT:                                     OUT:
          ----                                     ----
             STORAGE =        1082.7566               STORAGE =           0.0000
       CONSTANT HEAD =         355.7057         CONSTANT HEAD =           2.9311
       RIVER LEAKAGE =         171.2389         RIVER LEAKAGE =           0.0000
            RECHARGE =        2185.2500              RECHARGE =          48.0000

           TOTAL OUT =        3794.9512             TOTAL OUT =          50.9311

            IN - OUT =      -4.8828E-04              IN - OUT =       5.3406E-05

 PERCENT DISCREPANCY =          -0.00     PERCENT DISCREPANCY =           0.00






         TIME SUMMARY AT END OF TIME STEP    1 IN STRESS PERIOD  112
                    SECONDS     MINUTES      HOURS       DAYS        YEARS
                    -----------------------------------------------------------
   TIME STEP LENGTH  86400.      1440.0      24.000      1.0000     2.73785E-03
 STRESS PERIOD TIME  86400.      1440.0      24.000      1.0000     2.73785E-03
         TOTAL TIME 9.67680E+06 1.61280E+05  2688.0      112.00     0.30664    
1
1
                            STRESS PERIOD NO.  113, LENGTH =   1.000000    
                            -----------------------------------------------

                              NUMBER OF TIME STEPS =     1

                               MULTIPLIER FOR DELT =     1.000

                            INITIAL TIME STEP SIZE =   1.000000    

 REUSING NON-PARAMETER RIVER REACHES FROM LAST STRESS PERIOD

      2 RIVER REACHES

                 RECHARGE = -5.600000E-03
 
 SOLVING FOR HEAD 

 OUTPUT CONTROL FOR STRESS PERIOD  113   TIME STEP    1
    SAVE HEAD FOR ALL LAYERS

 HEAD WILL BE SAVED ON UNIT   51 AT END OF TIME STEP    1, STRESS PERIOD  113
1
  VOLUMETRIC BUDGET FOR ENTIRE MODEL AT END OF TIME STEP    1, STRESS PERIOD 113
  ------------------------------------------------------------------------------

     CUMULATIVE VOLUMES      L**3       RATES FOR THIS TIME STEP      L**3/T
     ------------------                 ------------------------

           IN:                                      IN:
           ---                                      ---
             STORAGE =        2407.1172               STORAGE =          50.2107
       CONSTANT HEAD =           0.0000         CONSTANT HEAD =           0.0000
       RIVER LEAKAGE =         231.7562         RIVER LEAKAGE =           8.7120
            RECHARGE =        1215.0000              RECHARGE =           0.0000

            TOTAL IN =        3853.8733              TOTAL IN =          58.9227

          OUT:                                     OUT:
          ----                                     ----
             STORAGE =        1082.7566               STORAGE =           0.0000
       CONSTANT HEAD =         358.6284         CONSTANT HEAD =           2.9227
       RIVER LEAKAGE =         171.2389         RIVER LEAKAGE =           0.0000
            RECHARGE =        2241.2500              RECHARGE =          56.0000

           TOTAL OUT =        3853.8740             TOTAL OUT =          58.9227

            IN - OUT =      -7.3242E-04              IN - OUT =       1.5259E-05

 PERCENT DISCREPANCY =          -0.00     PERCENT DISCREPANCY =           0.00






         TIME SUMMARY AT END OF TIME STEP    1 IN STRESS PERIOD  113
                    SECONDS     MINUTES      HOURS       DAYS        YEARS
                    -----------------------------------------------------------
   TIME STEP LENGTH  86400.      1440.0      24.000      1.0000     2.73785E-03
 STRESS PERIOD TIME  86400.      1440.0      24.000      1.0000     2.73785E-03
         TOTAL TIME 9.76320E+06 1.62720E+05  2712.0      113.00     0.30938    
1
1
                            STRESS PERIOD NO.  114, LENGTH =   1.000000    
                            -----------------------------------------------

                              NUMBER OF TIME STEPS =     1

                               MULTIPLIER FOR DELT =     1.000

                            INITIAL TIME STEP SIZE =   1.000000    

 REUSING NON-PARAMETER RIVER REACHES FROM LAST STRESS PERIOD

      2 RIVER REACHES

                 RECHARGE = -4.500000E-03
 
 SOLVING FOR HEAD 

 OUTPUT CONTROL FOR STRESS PERIOD  114   TIME STEP    1
    SAVE HEAD FOR ALL LAYERS

 HEAD WILL BE SAVED ON UNIT   51 AT END OF TIME STEP    1, STRESS PERIOD  114
1
  VOLUMETRIC BUDGET FOR ENTIRE MODEL AT END OF TIME STEP    1, STRESS PERIOD 114
  ------------------------------------------------------------------------------

     CUMULATIVE VOLUMES      L**3       RATES FOR THIS TIME STEP      L**3/T
     ------------------                 ------------------------

           IN:                                      IN:
           ---                                      ---
             STORAGE =        2446.0229               STORAGE =          38.9057
       CONSTANT HEAD =           0.0000         CONSTANT HEAD =           0.0000
       RIVER LEAKAGE =         240.7647         RIVER LEAKAGE =           9.0085
            RECHARGE =        1215.0000              RECHARGE =           0.0000

            TOTAL IN =        3901.7876              TOTAL IN =          47.9143

          OUT:                                     OUT:
          ----                                     ----
             STORAGE =        1082.7566               STORAGE =           0.0000
       CONSTANT HEAD =         361.5426         CONSTANT HEAD =           2.9142
       RIVER LEAKAGE =         171.2389         RIVER LEAKAGE =           0.0000
            RECHARGE =        2286.2500              RECHARGE =          45.0000

           TOTAL OUT =        3901.7881             TOTAL OUT =          47.9142

            IN - OUT =      -4.8828E-04              IN - OUT =       8.3923E-05

 PERCENT DISCREPANCY =          -0.00     PERCENT DISCREPANCY =           0.00






         TIME SUMMARY AT END OF TIME STEP    1 IN STRESS PERIOD  114
                    SECONDS     MINUTES      HOURS       DAYS        YEARS
                    -----------------------------------------------------------
   TIME STEP LENGTH  86400.      1440.0      24.000      1.0000     2.73785E-03
 STRESS PERIOD TIME  86400.      1440.0      24.000      1.0000     2.73785E-03
         TOTAL TIME 9.84960E+06 1.64160E+05  2736.0      114.00     0.31211    
1
1
                            STRESS PERIOD NO.  115, LENGTH =   1.000000    
                            -----------------------------------------------

                              NUMBER OF TIME STEPS =     1

                               MULTIPLIER FOR DELT =     1.000

                            INITIAL TIME STEP SIZE =   1.000000    

 REUSING NON-PARAMETER RIVER REACHES FROM LAST STRESS PERIOD

      2 RIVER REACHES

                 RECHARGE = -4.900000E-03
 
 SOLVING FOR HEAD 

 OUTPUT CONTROL FOR STRESS PERIOD  115   TIME STEP    1
    SAVE HEAD FOR ALL LAYERS

 HEAD WILL BE SAVED ON UNIT   51 AT END OF TIME STEP    1, STRESS PERIOD  115
1
  VOLUMETRIC BUDGET FOR ENTIRE MODEL AT END OF TIME STEP    1, STRESS PERIOD 115
  ------------------------------------------------------------------------------

     CUMULATIVE VOLUMES      L**3       RATES FOR THIS TIME STEP      L**3/T
     ------------------                 ------------------------

           IN:                                      IN:
           ---                                      ---
             STORAGE =        2488.4382               STORAGE =          42.4154
       CONSTANT HEAD =           0.0000         CONSTANT HEAD =           0.0000
       RIVER LEAKAGE =         250.2547         RIVER LEAKAGE =           9.4900
            RECHARGE =        1215.0000              RECHARGE =           0.0000

            TOTAL IN =        3953.6929              TOTAL IN =          51.9054

          OUT:                                     OUT:
          ----                                     ----
             STORAGE =        1082.7566               STORAGE =           0.0000
       CONSTANT HEAD =         364.4479         CONSTANT HEAD =           2.9054
       RIVER LEAKAGE =         171.2389         RIVER LEAKAGE =           0.0000
            RECHARGE =        2335.2500              RECHARGE =          49.0000

           TOTAL OUT =        3953.6934             TOTAL OUT =          51.9054

            IN - OUT =      -4.8828E-04              IN - OUT =       2.2888E-05

 PERCENT DISCREPANCY =          -0.00     PERCENT DISCREPANCY =           0.00






         TIME SUMMARY AT END OF TIME STEP    1 IN STRESS PERIOD  115
                    SECONDS     MINUTES      HOURS       DAYS        YEARS
                    -----------------------------------------------------------
   TIME STEP LENGTH  86400.      1440.0      24.000      1.0000     2.73785E-03
 STRESS PERIOD TIME  86400.      1440.0      24.000      1.0000     2.73785E-03
         TOTAL TIME 9.93600E+06 1.65600E+05  2760.0      115.00     0.31485    
1
1
                            STRESS PERIOD NO.  116, LENGTH =   1.000000    
                            -----------------------------------------------

                              NUMBER OF TIME STEPS =     1

                               MULTIPLIER FOR DELT =     1.000

                            INITIAL TIME STEP SIZE =   1.000000    

 REUSING NON-PARAMETER RIVER REACHES FROM LAST STRESS PERIOD

      2 RIVER REACHES

                 RECHARGE = -3.000000E-03
 
 SOLVING FOR HEAD 

 OUTPUT CONTROL FOR STRESS PERIOD  116   TIME STEP    1
    SAVE HEAD FOR ALL LAYERS

 HEAD WILL BE SAVED ON UNIT   51 AT END OF TIME STEP    1, STRESS PERIOD  116
1
  VOLUMETRIC BUDGET FOR ENTIRE MODEL AT END OF TIME STEP    1, STRESS PERIOD 116
  ------------------------------------------------------------------------------

     CUMULATIVE VOLUMES      L**3       RATES FOR THIS TIME STEP      L**3/T
     ------------------                 ------------------------

           IN:                                      IN:
           ---                                      ---
             STORAGE =        2512.2036               STORAGE =          23.7653
       CONSTANT HEAD =           0.0000         CONSTANT HEAD =           0.0000
       RIVER LEAKAGE =         259.5133         RIVER LEAKAGE =           9.2586
            RECHARGE =        1215.0000              RECHARGE =           0.0000

            TOTAL IN =        3986.7170              TOTAL IN =          33.0239

          OUT:                                     OUT:
          ----                                     ----
             STORAGE =        1082.8835               STORAGE =           0.1269
       CONSTANT HEAD =         367.3449         CONSTANT HEAD =           2.8969
       RIVER LEAKAGE =         171.2389         RIVER LEAKAGE =           0.0000
            RECHARGE =        2365.2500              RECHARGE =          30.0000

           TOTAL OUT =        3986.7173             TOTAL OUT =          33.0239

            IN - OUT =      -2.4414E-04              IN - OUT =      -1.5259E-05

 PERCENT DISCREPANCY =          -0.00     PERCENT DISCREPANCY =          -0.00






         TIME SUMMARY AT END OF TIME STEP    1 IN STRESS PERIOD  116
                    SECONDS     MINUTES      HOURS       DAYS        YEARS
                    -----------------------------------------------------------
   TIME STEP LENGTH  86400.      1440.0      24.000      1.0000     2.73785E-03
 STRESS PERIOD TIME  86400.      1440.0      24.000      1.0000     2.73785E-03
         TOTAL TIME 1.00224E+07 1.67040E+05  2784.0      116.00     0.31759    
1
1
                            STRESS PERIOD NO.  117, LENGTH =   1.000000    
                            -----------------------------------------------

                              NUMBER OF TIME STEPS =     1

                               MULTIPLIER FOR DELT =     1.000

                            INITIAL TIME STEP SIZE =   1.000000    

 REUSING NON-PARAMETER RIVER REACHES FROM LAST STRESS PERIOD

      2 RIVER REACHES

                 RECHARGE = -3.800000E-03
 
 SOLVING FOR HEAD 

 OUTPUT CONTROL FOR STRESS PERIOD  117   TIME STEP    1
    SAVE HEAD FOR ALL LAYERS

 HEAD WILL BE SAVED ON UNIT   51 AT END OF TIME STEP    1, STRESS PERIOD  117
1
  VOLUMETRIC BUDGET FOR ENTIRE MODEL AT END OF TIME STEP    1, STRESS PERIOD 117
  ------------------------------------------------------------------------------

     CUMULATIVE VOLUMES      L**3       RATES FOR THIS TIME STEP      L**3/T
     ------------------                 ------------------------

           IN:                                      IN:
           ---                                      ---
             STORAGE =        2543.5735               STORAGE =          31.3700
       CONSTANT HEAD =           0.0000         CONSTANT HEAD =           0.0000
       RIVER LEAKAGE =         269.0317         RIVER LEAKAGE =           9.5184
            RECHARGE =        1215.0000              RECHARGE =           0.0000

            TOTAL IN =        4027.6052              TOTAL IN =          40.8884

          OUT:                                     OUT:
          ----                                     ----
             STORAGE =        1082.8835               STORAGE =           0.0000
       CONSTANT HEAD =         370.2332         CONSTANT HEAD =           2.8883
       RIVER LEAKAGE =         171.2389         RIVER LEAKAGE =           0.0000
            RECHARGE =        2403.2500              RECHARGE =          38.0000

           TOTAL OUT =        4027.6055             TOTAL OUT =          40.8883

            IN - OUT =      -2.4414E-04              IN - OUT =       6.4850E-05

 PERCENT DISCREPANCY =          -0.00     PERCENT DISCREPANCY =           0.00






         TIME SUMMARY AT END OF TIME STEP    1 IN STRESS PERIOD  117
                    SECONDS     MINUTES      HOURS       DAYS        YEARS
                    -----------------------------------------------------------
   TIME STEP LENGTH  86400.      1440.0      24.000      1.0000     2.73785E-03
 STRESS PERIOD TIME  86400.      1440.0      24.000      1.0000     2.73785E-03
         TOTAL TIME 1.01088E+07 1.68480E+05  2808.0      117.00     0.32033    
1
1
                            STRESS PERIOD NO.  118, LENGTH =   1.000000    
                            -----------------------------------------------

                              NUMBER OF TIME STEPS =     1

                               MULTIPLIER FOR DELT =     1.000

                            INITIAL TIME STEP SIZE =   1.000000    

 REUSING NON-PARAMETER RIVER REACHES FROM LAST STRESS PERIOD

      2 RIVER REACHES

                 RECHARGE =  4.900000E-03
 
 SOLVING FOR HEAD 

 OUTPUT CONTROL FOR STRESS PERIOD  118   TIME STEP    1
    SAVE HEAD FOR ALL LAYERS

 HEAD WILL BE SAVED ON UNIT   51 AT END OF TIME STEP    1, STRESS PERIOD  118
1
  VOLUMETRIC BUDGET FOR ENTIRE MODEL AT END OF TIME STEP    1, STRESS PERIOD 118
  ------------------------------------------------------------------------------

     CUMULATIVE VOLUMES      L**3       RATES FOR THIS TIME STEP      L**3/T
     ------------------                 ------------------------

           IN:                                      IN:
           ---                                      ---
             STORAGE =        2544.1069               STORAGE =           0.5335
       CONSTANT HEAD =           0.0000         CONSTANT HEAD =           0.0000
       RIVER LEAKAGE =         275.7792         RIVER LEAKAGE =           6.7475
            RECHARGE =        1264.0000              RECHARGE =          49.0000

            TOTAL IN =        4083.8862              TOTAL IN =          56.2809

          OUT:                                     OUT:
          ----                                     ----
             STORAGE =        1136.2820               STORAGE =          53.3984
       CONSTANT HEAD =         373.1157         CONSTANT HEAD =           2.8825
       RIVER LEAKAGE =         171.2389         RIVER LEAKAGE =           0.0000
            RECHARGE =        2403.2500              RECHARGE =           0.0000

           TOTAL OUT =        4083.8867             TOTAL OUT =          56.2810

            IN - OUT =      -4.8828E-04              IN - OUT =      -7.6294E-06

 PERCENT DISCREPANCY =          -0.00     PERCENT DISCREPANCY =          -0.00






         TIME SUMMARY AT END OF TIME STEP    1 IN STRESS PERIOD  118
                    SECONDS     MINUTES      HOURS       DAYS        YEARS
                    -----------------------------------------------------------
   TIME STEP LENGTH  86400.      1440.0      24.000      1.0000     2.73785E-03
 STRESS PERIOD TIME  86400.      1440.0      24.000      1.0000     2.73785E-03
         TOTAL TIME 1.01952E+07 1.69920E+05  2832.0      118.00     0.32307    
1
1
                            STRESS PERIOD NO.  119, LENGTH =   1.000000    
                            -----------------------------------------------

                              NUMBER OF TIME STEPS =     1

                               MULTIPLIER FOR DELT =     1.000

                            INITIAL TIME STEP SIZE =   1.000000    

 REUSING NON-PARAMETER RIVER REACHES FROM LAST STRESS PERIOD

      2 RIVER REACHES

                 RECHARGE =  3.200000E-03
 
 SOLVING FOR HEAD 

 OUTPUT CONTROL FOR STRESS PERIOD  119   TIME STEP    1
    SAVE HEAD FOR ALL LAYERS

 HEAD WILL BE SAVED ON UNIT   51 AT END OF TIME STEP    1, STRESS PERIOD  119
1
  VOLUMETRIC BUDGET FOR ENTIRE MODEL AT END OF TIME STEP    1, STRESS PERIOD 119
  ------------------------------------------------------------------------------

     CUMULATIVE VOLUMES      L**3       RATES FOR THIS TIME STEP      L**3/T
     ------------------                 ------------------------

           IN:                                      IN:
           ---                                      ---
             STORAGE =        2544.6113               STORAGE =           0.5045
       CONSTANT HEAD =           0.0000         CONSTANT HEAD =           0.0000
       RIVER LEAKAGE =         281.4736         RIVER LEAKAGE =           5.6944
            RECHARGE =        1296.0000              RECHARGE =          32.0000

            TOTAL IN =        4122.0850              TOTAL IN =          38.1988

          OUT:                                     OUT:
          ----                                     ----
             STORAGE =        1171.6035               STORAGE =          35.3216
       CONSTANT HEAD =         375.9931         CONSTANT HEAD =           2.8774
       RIVER LEAKAGE =         171.2389         RIVER LEAKAGE =           0.0000
            RECHARGE =        2403.2500              RECHARGE =           0.0000

           TOTAL OUT =        4122.0854             TOTAL OUT =          38.1990

            IN - OUT =      -4.8828E-04              IN - OUT =      -1.0300E-04

 PERCENT DISCREPANCY =          -0.00     PERCENT DISCREPANCY =          -0.00






         TIME SUMMARY AT END OF TIME STEP    1 IN STRESS PERIOD  119
                    SECONDS     MINUTES      HOURS       DAYS        YEARS
                    -----------------------------------------------------------
   TIME STEP LENGTH  86400.      1440.0      24.000      1.0000     2.73785E-03
 STRESS PERIOD TIME  86400.      1440.0      24.000      1.0000     2.73785E-03
         TOTAL TIME 1.02816E+07 1.71360E+05  2856.0      119.00     0.32580    
1
1
                            STRESS PERIOD NO.  120, LENGTH =   1.000000    
                            -----------------------------------------------

                              NUMBER OF TIME STEPS =     1

                               MULTIPLIER FOR DELT =     1.000

                            INITIAL TIME STEP SIZE =   1.000000    

 REUSING NON-PARAMETER RIVER REACHES FROM LAST STRESS PERIOD

      2 RIVER REACHES

                 RECHARGE = -4.200000E-03
 
 SOLVING FOR HEAD 

 OUTPUT CONTROL FOR STRESS PERIOD  120   TIME STEP    1
    SAVE HEAD FOR ALL LAYERS

 HEAD WILL BE SAVED ON UNIT   51 AT END OF TIME STEP    1, STRESS PERIOD  120
1
  VOLUMETRIC BUDGET FOR ENTIRE MODEL AT END OF TIME STEP    1, STRESS PERIOD 120
  ------------------------------------------------------------------------------

     CUMULATIVE VOLUMES      L**3       RATES FOR THIS TIME STEP      L**3/T
     ------------------                 ------------------------

           IN:                                      IN:
           ---                                      ---
             STORAGE =        2582.0920               STORAGE =          37.4808
       CONSTANT HEAD =           0.0000         CONSTANT HEAD =           0.0000
       RIVER LEAKAGE =         288.8630         RIVER LEAKAGE =           7.3895
            RECHARGE =        1296.0000              RECHARGE =           0.0000

            TOTAL IN =        4166.9551              TOTAL IN =          44.8703

          OUT:                                     OUT:
          ----                                     ----
             STORAGE =        1171.6035               STORAGE =           0.0000
       CONSTANT HEAD =         378.8634         CONSTANT HEAD =           2.8703
       RIVER LEAKAGE =         171.2389         RIVER LEAKAGE =           0.0000
            RECHARGE =        2445.2500              RECHARGE =          42.0000

           TOTAL OUT =        4166.9561             TOTAL OUT =          44.8703

            IN - OUT =      -9.7656E-04              IN - OUT =      -2.2888E-05

 PERCENT DISCREPANCY =          -0.00     PERCENT DISCREPANCY =          -0.00






         TIME SUMMARY AT END OF TIME STEP    1 IN STRESS PERIOD  120
                    SECONDS     MINUTES      HOURS       DAYS        YEARS
                    -----------------------------------------------------------
   TIME STEP LENGTH  86400.      1440.0      24.000      1.0000     2.73785E-03
 STRESS PERIOD TIME  86400.      1440.0      24.000      1.0000     2.73785E-03
         TOTAL TIME 1.03680E+07 1.72800E+05  2880.0      120.00     0.32854    
1
1
                            STRESS PERIOD NO.  121, LENGTH =   1.000000    
                            -----------------------------------------------

                              NUMBER OF TIME STEPS =     1

                               MULTIPLIER FOR DELT =     1.000

                            INITIAL TIME STEP SIZE =   1.000000    

 REUSING NON-PARAMETER RIVER REACHES FROM LAST STRESS PERIOD

      2 RIVER REACHES

                 RECHARGE =   0.00000    
 
 SOLVING FOR HEAD 

 OUTPUT CONTROL FOR STRESS PERIOD  121   TIME STEP    1
    SAVE HEAD FOR ALL LAYERS

 HEAD WILL BE SAVED ON UNIT   51 AT END OF TIME STEP    1, STRESS PERIOD  121
1
  VOLUMETRIC BUDGET FOR ENTIRE MODEL AT END OF TIME STEP    1, STRESS PERIOD 121
  ------------------------------------------------------------------------------

     CUMULATIVE VOLUMES      L**3       RATES FOR THIS TIME STEP      L**3/T
     ------------------                 ------------------------

           IN:                                      IN:
           ---                                      ---
             STORAGE =        2583.0112               STORAGE =           0.9192
       CONSTANT HEAD =           0.0000         CONSTANT HEAD =           0.0000
       RIVER LEAKAGE =         295.6671         RIVER LEAKAGE =           6.8040
            RECHARGE =        1296.0000              RECHARGE =           0.0000

            TOTAL IN =        4174.6782              TOTAL IN =           7.7232

          OUT:                                     OUT:
          ----                                     ----
             STORAGE =        1176.4626               STORAGE =           4.8592
       CONSTANT HEAD =         381.7274         CONSTANT HEAD =           2.8640
       RIVER LEAKAGE =         171.2389         RIVER LEAKAGE =           0.0000
            RECHARGE =        2445.2500              RECHARGE =           0.0000

           TOTAL OUT =        4174.6787             TOTAL OUT =           7.7232

            IN - OUT =      -4.8828E-04              IN - OUT =       2.0504E-05

 PERCENT DISCREPANCY =          -0.00     PERCENT DISCREPANCY =           0.00






         TIME SUMMARY AT END OF TIME STEP    1 IN STRESS PERIOD  121
                    SECONDS     MINUTES      HOURS       DAYS        YEARS
                    -----------------------------------------------------------
   TIME STEP LENGTH  86400.      1440.0      24.000      1.0000     2.73785E-03
 STRESS PERIOD TIME  86400.      1440.0      24.000      1.0000     2.73785E-03
         TOTAL TIME 1.04544E+07 1.74240E+05  2904.0      121.00     0.33128    
1
1
                            STRESS PERIOD NO.  122, LENGTH =   1.000000    
                            -----------------------------------------------

                              NUMBER OF TIME STEPS =     1

                               MULTIPLIER FOR DELT =     1.000

                            INITIAL TIME STEP SIZE =   1.000000    

 REUSING NON-PARAMETER RIVER REACHES FROM LAST STRESS PERIOD

      2 RIVER REACHES

                 RECHARGE =  2.000000E-03
 
 SOLVING FOR HEAD 

 OUTPUT CONTROL FOR STRESS PERIOD  122   TIME STEP    1
    SAVE HEAD FOR ALL LAYERS

 HEAD WILL BE SAVED ON UNIT   51 AT END OF TIME STEP    1, STRESS PERIOD  122
1
  VOLUMETRIC BUDGET FOR ENTIRE MODEL AT END OF TIME STEP    1, STRESS PERIOD 122
  ------------------------------------------------------------------------------

     CUMULATIVE VOLUMES      L**3       RATES FOR THIS TIME STEP      L**3/T
     ------------------                 ------------------------

           IN:                                      IN:
           ---                                      ---
             STORAGE =        2583.5020               STORAGE =           0.4908
       CONSTANT HEAD =           0.0000         CONSTANT HEAD =           0.0000
       RIVER LEAKAGE =         301.4841         RIVER LEAKAGE =           5.8170
            RECHARGE =        1316.0000              RECHARGE =          20.0000

            TOTAL IN =        4200.9863              TOTAL IN =          26.3078

          OUT:                                     OUT:
          ----                                     ----
             STORAGE =        1199.9117               STORAGE =          23.4491
       CONSTANT HEAD =         384.5862         CONSTANT HEAD =           2.8587
       RIVER LEAKAGE =         171.2389         RIVER LEAKAGE =           0.0000
            RECHARGE =        2445.2500              RECHARGE =           0.0000

           TOTAL OUT =        4200.9868             TOTAL OUT =          26.3078

            IN - OUT =      -4.8828E-04              IN - OUT =       3.8147E-05

 PERCENT DISCREPANCY =          -0.00     PERCENT DISCREPANCY =           0.00






         TIME SUMMARY AT END OF TIME STEP    1 IN STRESS PERIOD  122
                    SECONDS     MINUTES      HOURS       DAYS        YEARS
                    -----------------------------------------------------------
   TIME STEP LENGTH  86400.      1440.0      24.000      1.0000     2.73785E-03
 STRESS PERIOD TIME  86400.      1440.0      24.000      1.0000     2.73785E-03
         TOTAL TIME 1.05408E+07 1.75680E+05  2928.0      122.00     0.33402    
1
1
                            STRESS PERIOD NO.  123, LENGTH =   1.000000    
                            -----------------------------------------------

                              NUMBER OF TIME STEPS =     1

                               MULTIPLIER FOR DELT =     1.000

                            INITIAL TIME STEP SIZE =   1.000000    

 REUSING NON-PARAMETER RIVER REACHES FROM LAST STRESS PERIOD

      2 RIVER REACHES

                 RECHARGE = -2.100000E-03
 
 SOLVING FOR HEAD 

 OUTPUT CONTROL FOR STRESS PERIOD  123   TIME STEP    1
    SAVE HEAD FOR ALL LAYERS

 HEAD WILL BE SAVED ON UNIT   51 AT END OF TIME STEP    1, STRESS PERIOD  123
1
  VOLUMETRIC BUDGET FOR ENTIRE MODEL AT END OF TIME STEP    1, STRESS PERIOD 123
  ------------------------------------------------------------------------------

     CUMULATIVE VOLUMES      L**3       RATES FOR THIS TIME STEP      L**3/T
     ------------------                 ------------------------

           IN:                                      IN:
           ---                                      ---
             STORAGE =        2600.7651               STORAGE =          17.2631
       CONSTANT HEAD =           0.0000         CONSTANT HEAD =           0.0000
       RIVER LEAKAGE =         308.0734         RIVER LEAKAGE =           6.5893
            RECHARGE =        1316.0000              RECHARGE =           0.0000

            TOTAL IN =        4224.8389              TOTAL IN =          23.8524

          OUT:                                     OUT:
          ----                                     ----
             STORAGE =        1199.9117               STORAGE =           0.0000
       CONSTANT HEAD =         387.4386         CONSTANT HEAD =           2.8525
       RIVER LEAKAGE =         171.2389         RIVER LEAKAGE =           0.0000
            RECHARGE =        2466.2500              RECHARGE =          21.0000

           TOTAL OUT =        4224.8394             TOTAL OUT =          23.8525

            IN - OUT =      -4.8828E-04              IN - OUT =      -8.3923E-05

 PERCENT DISCREPANCY =          -0.00     PERCENT DISCREPANCY =          -0.00






         TIME SUMMARY AT END OF TIME STEP    1 IN STRESS PERIOD  123
                    SECONDS     MINUTES      HOURS       DAYS        YEARS
                    -----------------------------------------------------------
   TIME STEP LENGTH  86400.      1440.0      24.000      1.0000     2.73785E-03
 STRESS PERIOD TIME  86400.      1440.0      24.000      1.0000     2.73785E-03
         TOTAL TIME 1.06272E+07 1.77120E+05  2952.0      123.00     0.33676    
1
1
                            STRESS PERIOD NO.  124, LENGTH =   1.000000    
                            -----------------------------------------------

                              NUMBER OF TIME STEPS =     1

                               MULTIPLIER FOR DELT =     1.000

                            INITIAL TIME STEP SIZE =   1.000000    

 REUSING NON-PARAMETER RIVER REACHES FROM LAST STRESS PERIOD

      2 RIVER REACHES

                 RECHARGE =  2.400000E-03
 
 SOLVING FOR HEAD 

 OUTPUT CONTROL FOR STRESS PERIOD  124   TIME STEP    1
    SAVE HEAD FOR ALL LAYERS

 HEAD WILL BE SAVED ON UNIT   51 AT END OF TIME STEP    1, STRESS PERIOD  124
1
  VOLUMETRIC BUDGET FOR ENTIRE MODEL AT END OF TIME STEP    1, STRESS PERIOD 124
  ------------------------------------------------------------------------------

     CUMULATIVE VOLUMES      L**3       RATES FOR THIS TIME STEP      L**3/T
     ------------------                 ------------------------

           IN:                                      IN:
           ---                                      ---
             STORAGE =        2601.2373               STORAGE =           0.4721
       CONSTANT HEAD =           0.0000         CONSTANT HEAD =           0.0000
       RIVER LEAKAGE =         313.4802         RIVER LEAKAGE =           5.4068
            RECHARGE =        1340.0000              RECHARGE =          24.0000

            TOTAL IN =        4254.7178              TOTAL IN =          29.8789

          OUT:                                     OUT:
          ----                                     ----
             STORAGE =        1226.9431               STORAGE =          27.0313
       CONSTANT HEAD =         390.2861         CONSTANT HEAD =           2.8475
       RIVER LEAKAGE =         171.2389         RIVER LEAKAGE =           0.0000
            RECHARGE =        2466.2500              RECHARGE =           0.0000

           TOTAL OUT =        4254.7183             TOTAL OUT =          29.8789

            IN - OUT =      -4.8828E-04              IN - OUT =       2.6703E-05

 PERCENT DISCREPANCY =          -0.00     PERCENT DISCREPANCY =           0.00






         TIME SUMMARY AT END OF TIME STEP    1 IN STRESS PERIOD  124
                    SECONDS     MINUTES      HOURS       DAYS        YEARS
                    -----------------------------------------------------------
   TIME STEP LENGTH  86400.      1440.0      24.000      1.0000     2.73785E-03
 STRESS PERIOD TIME  86400.      1440.0      24.000      1.0000     2.73785E-03
         TOTAL TIME 1.07136E+07 1.78560E+05  2976.0      124.00     0.33949    
1
1
                            STRESS PERIOD NO.  125, LENGTH =   1.000000    
                            -----------------------------------------------

                              NUMBER OF TIME STEPS =     1

                               MULTIPLIER FOR DELT =     1.000

                            INITIAL TIME STEP SIZE =   1.000000    

 REUSING NON-PARAMETER RIVER REACHES FROM LAST STRESS PERIOD

      2 RIVER REACHES

                 RECHARGE =  5.400000E-03
 
 SOLVING FOR HEAD 

 OUTPUT CONTROL FOR STRESS PERIOD  125   TIME STEP    1
    SAVE HEAD FOR ALL LAYERS

 HEAD WILL BE SAVED ON UNIT   51 AT END OF TIME STEP    1, STRESS PERIOD  125
1
  VOLUMETRIC BUDGET FOR ENTIRE MODEL AT END OF TIME STEP    1, STRESS PERIOD 125
  ------------------------------------------------------------------------------

     CUMULATIVE VOLUMES      L**3       RATES FOR THIS TIME STEP      L**3/T
     ------------------                 ------------------------

           IN:                                      IN:
           ---                                      ---
             STORAGE =        2601.6689               STORAGE =           0.4316
       CONSTANT HEAD =           0.0000         CONSTANT HEAD =           0.0000
       RIVER LEAKAGE =         317.1360         RIVER LEAKAGE =           3.6559
            RECHARGE =        1394.0000              RECHARGE =          54.0000

            TOTAL IN =        4312.8047              TOTAL IN =          58.0874

          OUT:                                     OUT:
          ----                                     ----
             STORAGE =        1282.1863               STORAGE =          55.2432
       CONSTANT HEAD =         393.1303         CONSTANT HEAD =           2.8442
       RIVER LEAKAGE =         171.2389         RIVER LEAKAGE =           0.0000
            RECHARGE =        2466.2500              RECHARGE =           0.0000

           TOTAL OUT =        4312.8057             TOTAL OUT =          58.0873

            IN - OUT =      -9.7656E-04              IN - OUT =       1.0300E-04

 PERCENT DISCREPANCY =          -0.00     PERCENT DISCREPANCY =           0.00






         TIME SUMMARY AT END OF TIME STEP    1 IN STRESS PERIOD  125
                    SECONDS     MINUTES      HOURS       DAYS        YEARS
                    -----------------------------------------------------------
   TIME STEP LENGTH  86400.      1440.0      24.000      1.0000     2.73785E-03
 STRESS PERIOD TIME  86400.      1440.0      24.000      1.0000     2.73785E-03
         TOTAL TIME 1.08000E+07 1.80000E+05  3000.0      125.00     0.34223    
1
1
                            STRESS PERIOD NO.  126, LENGTH =   1.000000    
                            -----------------------------------------------

                              NUMBER OF TIME STEPS =     1

                               MULTIPLIER FOR DELT =     1.000

                            INITIAL TIME STEP SIZE =   1.000000    

 REUSING NON-PARAMETER RIVER REACHES FROM LAST STRESS PERIOD

      2 RIVER REACHES

                 RECHARGE = -2.200000E-03
 
 SOLVING FOR HEAD 

 OUTPUT CONTROL FOR STRESS PERIOD  126   TIME STEP    1
    SAVE HEAD FOR ALL LAYERS

 HEAD WILL BE SAVED ON UNIT   51 AT END OF TIME STEP    1, STRESS PERIOD  126
1
  VOLUMETRIC BUDGET FOR ENTIRE MODEL AT END OF TIME STEP    1, STRESS PERIOD 126
  ------------------------------------------------------------------------------

     CUMULATIVE VOLUMES      L**3       RATES FOR THIS TIME STEP      L**3/T
     ------------------                 ------------------------

           IN:                                      IN:
           ---                                      ---
             STORAGE =        2621.4165               STORAGE =          19.7477
       CONSTANT HEAD =           0.0000         CONSTANT HEAD =           0.0000
       RIVER LEAKAGE =         322.2274         RIVER LEAKAGE =           5.0913
            RECHARGE =        1394.0000              RECHARGE =           0.0000

            TOTAL IN =        4337.6436              TOTAL IN =          24.8390

          OUT:                                     OUT:
          ----                                     ----
             STORAGE =        1282.1863               STORAGE =           0.0000
       CONSTANT HEAD =         395.9693         CONSTANT HEAD =           2.8390
       RIVER LEAKAGE =         171.2389         RIVER LEAKAGE =           0.0000
            RECHARGE =        2488.2500              RECHARGE =          22.0000

           TOTAL OUT =        4337.6445             TOTAL OUT =          24.8390

            IN - OUT =      -9.7656E-04              IN - OUT =      -5.7220E-06

 PERCENT DISCREPANCY =          -0.00     PERCENT DISCREPANCY =          -0.00






         TIME SUMMARY AT END OF TIME STEP    1 IN STRESS PERIOD  126
                    SECONDS     MINUTES      HOURS       DAYS        YEARS
                    -----------------------------------------------------------
   TIME STEP LENGTH  86400.      1440.0      24.000      1.0000     2.73785E-03
 STRESS PERIOD TIME  86400.      1440.0      24.000      1.0000     2.73785E-03
         TOTAL TIME 1.08864E+07 1.81440E+05  3024.0      126.00     0.34497    
1
1
                            STRESS PERIOD NO.  127, LENGTH =   1.000000    
                            -----------------------------------------------

                              NUMBER OF TIME STEPS =     1

                               MULTIPLIER FOR DELT =     1.000

                            INITIAL TIME STEP SIZE =   1.000000    

 REUSING NON-PARAMETER RIVER REACHES FROM LAST STRESS PERIOD

      2 RIVER REACHES

                 RECHARGE = -2.300000E-03
 
 SOLVING FOR HEAD 

 OUTPUT CONTROL FOR STRESS PERIOD  127   TIME STEP    1
    SAVE HEAD FOR ALL LAYERS

 HEAD WILL BE SAVED ON UNIT   51 AT END OF TIME STEP    1, STRESS PERIOD  127
1
  VOLUMETRIC BUDGET FOR ENTIRE MODEL AT END OF TIME STEP    1, STRESS PERIOD 127
  ------------------------------------------------------------------------------

     CUMULATIVE VOLUMES      L**3       RATES FOR THIS TIME STEP      L**3/T
     ------------------                 ------------------------

           IN:                                      IN:
           ---                                      ---
             STORAGE =        2641.4553               STORAGE =          20.0389
       CONSTANT HEAD =           0.0000         CONSTANT HEAD =           0.0000
       RIVER LEAKAGE =         328.0218         RIVER LEAKAGE =           5.7944
            RECHARGE =        1394.0000              RECHARGE =           0.0000

            TOTAL IN =        4363.4771              TOTAL IN =          25.8333

          OUT:                                     OUT:
          ----                                     ----
             STORAGE =        1282.1863               STORAGE =           0.0000
       CONSTANT HEAD =         398.8026         CONSTANT HEAD =           2.8333
       RIVER LEAKAGE =         171.2389         RIVER LEAKAGE =           0.0000
            RECHARGE =        2511.2500              RECHARGE =          23.0000

           TOTAL OUT =        4363.4775             TOTAL OUT =          25.8333

            IN - OUT =      -4.8828E-04              IN - OUT =      -3.8147E-05

 PERCENT DISCREPANCY =          -0.00     PERCENT DISCREPANCY =          -0.00






         TIME SUMMARY AT END OF TIME STEP    1 IN STRESS PERIOD  127
                    SECONDS     MINUTES      HOURS       DAYS        YEARS
                    -----------------------------------------------------------
   TIME STEP LENGTH  86400.      1440.0      24.000      1.0000     2.73785E-03
 STRESS PERIOD TIME  86400.      1440.0      24.000      1.0000     2.73785E-03
         TOTAL TIME 1.09728E+07 1.82880E+05  3048.0      127.00     0.34771    
1
1
                            STRESS PERIOD NO.  128, LENGTH =   1.000000    
                            -----------------------------------------------

                              NUMBER OF TIME STEPS =     1

                               MULTIPLIER FOR DELT =     1.000

                            INITIAL TIME STEP SIZE =   1.000000    

 REUSING NON-PARAMETER RIVER REACHES FROM LAST STRESS PERIOD

      2 RIVER REACHES

                 RECHARGE = -3.575000E-03
 
 SOLVING FOR HEAD 

 OUTPUT CONTROL FOR STRESS PERIOD  128   TIME STEP    1
    SAVE HEAD FOR ALL LAYERS

 HEAD WILL BE SAVED ON UNIT   51 AT END OF TIME STEP    1, STRESS PERIOD  128
1
  VOLUMETRIC BUDGET FOR ENTIRE MODEL AT END OF TIME STEP    1, STRESS PERIOD 128
  ------------------------------------------------------------------------------

     CUMULATIVE VOLUMES      L**3       RATES FOR THIS TIME STEP      L**3/T
     ------------------                 ------------------------

           IN:                                      IN:
           ---                                      ---
             STORAGE =        2673.3447               STORAGE =          31.8895
       CONSTANT HEAD =           0.0000         CONSTANT HEAD =           0.0000
       RIVER LEAKAGE =         334.7091         RIVER LEAKAGE =           6.6874
            RECHARGE =        1394.0000              RECHARGE =           0.0000

            TOTAL IN =        4402.0537              TOTAL IN =          38.5768

          OUT:                                     OUT:
          ----                                     ----
             STORAGE =        1282.1863               STORAGE =           0.0000
       CONSTANT HEAD =         401.6296         CONSTANT HEAD =           2.8269
       RIVER LEAKAGE =         171.2389         RIVER LEAKAGE =           0.0000
            RECHARGE =        2547.0000              RECHARGE =          35.7500

           TOTAL OUT =        4402.0547             TOTAL OUT =          38.5769

            IN - OUT =      -9.7656E-04              IN - OUT =      -1.0681E-04

 PERCENT DISCREPANCY =          -0.00     PERCENT DISCREPANCY =          -0.00






         TIME SUMMARY AT END OF TIME STEP    1 IN STRESS PERIOD  128
                    SECONDS     MINUTES      HOURS       DAYS        YEARS
                    -----------------------------------------------------------
   TIME STEP LENGTH  86400.      1440.0      24.000      1.0000     2.73785E-03
 STRESS PERIOD TIME  86400.      1440.0      24.000      1.0000     2.73785E-03
         TOTAL TIME 1.10592E+07 1.84320E+05  3072.0      128.00     0.35044    
1
1
                            STRESS PERIOD NO.  129, LENGTH =   1.000000    
                            -----------------------------------------------

                              NUMBER OF TIME STEPS =     1

                               MULTIPLIER FOR DELT =     1.000

                            INITIAL TIME STEP SIZE =   1.000000    

 REUSING NON-PARAMETER RIVER REACHES FROM LAST STRESS PERIOD

      2 RIVER REACHES

                 RECHARGE = -3.400000E-03
 
 SOLVING FOR HEAD 

 OUTPUT CONTROL FOR STRESS PERIOD  129   TIME STEP    1
    SAVE HEAD FOR ALL LAYERS

 HEAD WILL BE SAVED ON UNIT   51 AT END OF TIME STEP    1, STRESS PERIOD  129
1
  VOLUMETRIC BUDGET FOR ENTIRE MODEL AT END OF TIME STEP    1, STRESS PERIOD 129
  ------------------------------------------------------------------------------

     CUMULATIVE VOLUMES      L**3       RATES FOR THIS TIME STEP      L**3/T
     ------------------                 ------------------------

           IN:                                      IN:
           ---                                      ---
             STORAGE =        2702.9275               STORAGE =          29.5828
       CONSTANT HEAD =           0.0000         CONSTANT HEAD =           0.0000
       RIVER LEAKAGE =         341.9464         RIVER LEAKAGE =           7.2373
            RECHARGE =        1394.0000              RECHARGE =           0.0000

            TOTAL IN =        4438.8740              TOTAL IN =          36.8201

          OUT:                                     OUT:
          ----                                     ----
             STORAGE =        1282.1863               STORAGE =           0.0000
       CONSTANT HEAD =         404.4498         CONSTANT HEAD =           2.8202
       RIVER LEAKAGE =         171.2389         RIVER LEAKAGE =           0.0000
            RECHARGE =        2581.0000              RECHARGE =          34.0000

           TOTAL OUT =        4438.8750             TOTAL OUT =          36.8202

            IN - OUT =      -9.7656E-04              IN - OUT =      -9.5367E-05

 PERCENT DISCREPANCY =          -0.00     PERCENT DISCREPANCY =          -0.00






         TIME SUMMARY AT END OF TIME STEP    1 IN STRESS PERIOD  129
                    SECONDS     MINUTES      HOURS       DAYS        YEARS
                    -----------------------------------------------------------
   TIME STEP LENGTH  86400.      1440.0      24.000      1.0000     2.73785E-03
 STRESS PERIOD TIME  86400.      1440.0      24.000      1.0000     2.73785E-03
         TOTAL TIME 1.11456E+07 1.85760E+05  3096.0      129.00     0.35318    
1
1
                            STRESS PERIOD NO.  130, LENGTH =   1.000000    
                            -----------------------------------------------

                              NUMBER OF TIME STEPS =     1

                               MULTIPLIER FOR DELT =     1.000

                            INITIAL TIME STEP SIZE =   1.000000    

 REUSING NON-PARAMETER RIVER REACHES FROM LAST STRESS PERIOD

      2 RIVER REACHES

                 RECHARGE =  1.300000E-02
 
 SOLVING FOR HEAD 

 OUTPUT CONTROL FOR STRESS PERIOD  130   TIME STEP    1
    SAVE HEAD FOR ALL LAYERS

 HEAD WILL BE SAVED ON UNIT   51 AT END OF TIME STEP    1, STRESS PERIOD  130
1
  VOLUMETRIC BUDGET FOR ENTIRE MODEL AT END OF TIME STEP    1, STRESS PERIOD 130
  ------------------------------------------------------------------------------

     CUMULATIVE VOLUMES      L**3       RATES FOR THIS TIME STEP      L**3/T
     ------------------                 ------------------------

           IN:                                      IN:
           ---                                      ---
             STORAGE =        2703.3123               STORAGE =           0.3848
       CONSTANT HEAD =           0.0000         CONSTANT HEAD =           0.0000
       RIVER LEAKAGE =         343.9635         RIVER LEAKAGE =           2.0171
            RECHARGE =        1524.0000              RECHARGE =         130.0000

            TOTAL IN =        4571.2759              TOTAL IN =         132.4019

          OUT:                                     OUT:
          ----                                     ----
             STORAGE =        1411.7693               STORAGE =         129.5831
       CONSTANT HEAD =         407.2686         CONSTANT HEAD =           2.8189
       RIVER LEAKAGE =         171.2389         RIVER LEAKAGE =           0.0000
            RECHARGE =        2581.0000              RECHARGE =           0.0000

           TOTAL OUT =        4571.2769             TOTAL OUT =         132.4019

            IN - OUT =      -9.7656E-04              IN - OUT =      -3.0518E-05

 PERCENT DISCREPANCY =          -0.00     PERCENT DISCREPANCY =          -0.00






         TIME SUMMARY AT END OF TIME STEP    1 IN STRESS PERIOD  130
                    SECONDS     MINUTES      HOURS       DAYS        YEARS
                    -----------------------------------------------------------
   TIME STEP LENGTH  86400.      1440.0      24.000      1.0000     2.73785E-03
 STRESS PERIOD TIME  86400.      1440.0      24.000      1.0000     2.73785E-03
         TOTAL TIME 1.12320E+07 1.87200E+05  3120.0      130.00     0.35592    
1
1
                            STRESS PERIOD NO.  131, LENGTH =   1.000000    
                            -----------------------------------------------

                              NUMBER OF TIME STEPS =     1

                               MULTIPLIER FOR DELT =     1.000

                            INITIAL TIME STEP SIZE =   1.000000    

 REUSING NON-PARAMETER RIVER REACHES FROM LAST STRESS PERIOD

      2 RIVER REACHES

                 RECHARGE = -3.975000E-03
 
 SOLVING FOR HEAD 

 OUTPUT CONTROL FOR STRESS PERIOD  131   TIME STEP    1
    SAVE HEAD FOR ALL LAYERS

 HEAD WILL BE SAVED ON UNIT   51 AT END OF TIME STEP    1, STRESS PERIOD  131
1
  VOLUMETRIC BUDGET FOR ENTIRE MODEL AT END OF TIME STEP    1, STRESS PERIOD 131
  ------------------------------------------------------------------------------

     CUMULATIVE VOLUMES      L**3       RATES FOR THIS TIME STEP      L**3/T
     ------------------                 ------------------------

           IN:                                      IN:
           ---                                      ---
             STORAGE =        2741.1167               STORAGE =          37.8043
       CONSTANT HEAD =           0.0000         CONSTANT HEAD =           0.0000
       RIVER LEAKAGE =         348.7233         RIVER LEAKAGE =           4.7598
            RECHARGE =        1524.0000              RECHARGE =           0.0000

            TOTAL IN =        4613.8398              TOTAL IN =          42.5641

          OUT:                                     OUT:
          ----                                     ----
             STORAGE =        1411.7693               STORAGE =           0.0000
       CONSTANT HEAD =         410.0826         CONSTANT HEAD =           2.8140
       RIVER LEAKAGE =         171.2389         RIVER LEAKAGE =           0.0000
            RECHARGE =        2620.7500              RECHARGE =          39.7500

           TOTAL OUT =        4613.8408             TOTAL OUT =          42.5640

            IN - OUT =      -9.7656E-04              IN - OUT =       1.2589E-04

 PERCENT DISCREPANCY =          -0.00     PERCENT DISCREPANCY =           0.00






         TIME SUMMARY AT END OF TIME STEP    1 IN STRESS PERIOD  131
                    SECONDS     MINUTES      HOURS       DAYS        YEARS
                    -----------------------------------------------------------
   TIME STEP LENGTH  86400.      1440.0      24.000      1.0000     2.73785E-03
 STRESS PERIOD TIME  86400.      1440.0      24.000      1.0000     2.73785E-03
         TOTAL TIME 1.13184E+07 1.88640E+05  3144.0      131.00     0.35866    
1
1
                            STRESS PERIOD NO.  132, LENGTH =   1.000000    
                            -----------------------------------------------

                              NUMBER OF TIME STEPS =     1

                               MULTIPLIER FOR DELT =     1.000

                            INITIAL TIME STEP SIZE =   1.000000    

 REUSING NON-PARAMETER RIVER REACHES FROM LAST STRESS PERIOD

      2 RIVER REACHES

                 RECHARGE = -2.775000E-03
 
 SOLVING FOR HEAD 

 OUTPUT CONTROL FOR STRESS PERIOD  132   TIME STEP    1
    SAVE HEAD FOR ALL LAYERS

 HEAD WILL BE SAVED ON UNIT   51 AT END OF TIME STEP    1, STRESS PERIOD  132
1
  VOLUMETRIC BUDGET FOR ENTIRE MODEL AT END OF TIME STEP    1, STRESS PERIOD 132
  ------------------------------------------------------------------------------

     CUMULATIVE VOLUMES      L**3       RATES FOR THIS TIME STEP      L**3/T
     ------------------                 ------------------------

           IN:                                      IN:
           ---                                      ---
             STORAGE =        2766.0669               STORAGE =          24.9502
       CONSTANT HEAD =           0.0000         CONSTANT HEAD =           0.0000
       RIVER LEAKAGE =         354.3316         RIVER LEAKAGE =           5.6083
            RECHARGE =        1524.0000              RECHARGE =           0.0000

            TOTAL IN =        4644.3984              TOTAL IN =          30.5585

          OUT:                                     OUT:
          ----                                     ----
             STORAGE =        1411.7693               STORAGE =           0.0000
       CONSTANT HEAD =         412.8911         CONSTANT HEAD =           2.8085
       RIVER LEAKAGE =         171.2389         RIVER LEAKAGE =           0.0000
            RECHARGE =        2648.5000              RECHARGE =          27.7500

           TOTAL OUT =        4644.3994             TOTAL OUT =          30.5585

            IN - OUT =      -9.7656E-04              IN - OUT =       2.0981E-05

 PERCENT DISCREPANCY =          -0.00     PERCENT DISCREPANCY =           0.00






         TIME SUMMARY AT END OF TIME STEP    1 IN STRESS PERIOD  132
                    SECONDS     MINUTES      HOURS       DAYS        YEARS
                    -----------------------------------------------------------
   TIME STEP LENGTH  86400.      1440.0      24.000      1.0000     2.73785E-03
 STRESS PERIOD TIME  86400.      1440.0      24.000      1.0000     2.73785E-03
         TOTAL TIME 1.14048E+07 1.90080E+05  3168.0      132.00     0.36140    
1
1
                            STRESS PERIOD NO.  133, LENGTH =   1.000000    
                            -----------------------------------------------

                              NUMBER OF TIME STEPS =     1

                               MULTIPLIER FOR DELT =     1.000

                            INITIAL TIME STEP SIZE =   1.000000    

 REUSING NON-PARAMETER RIVER REACHES FROM LAST STRESS PERIOD

      2 RIVER REACHES

                 RECHARGE = -4.700000E-03
 
 SOLVING FOR HEAD 

 OUTPUT CONTROL FOR STRESS PERIOD  133   TIME STEP    1
    SAVE HEAD FOR ALL LAYERS

 HEAD WILL BE SAVED ON UNIT   51 AT END OF TIME STEP    1, STRESS PERIOD  133
1
  VOLUMETRIC BUDGET FOR ENTIRE MODEL AT END OF TIME STEP    1, STRESS PERIOD 133
  ------------------------------------------------------------------------------

     CUMULATIVE VOLUMES      L**3       RATES FOR THIS TIME STEP      L**3/T
     ------------------                 ------------------------

           IN:                                      IN:
           ---                                      ---
             STORAGE =        2809.0212               STORAGE =          42.9544
       CONSTANT HEAD =           0.0000         CONSTANT HEAD =           0.0000
       RIVER LEAKAGE =         361.1791         RIVER LEAKAGE =           6.8475
            RECHARGE =        1524.0000              RECHARGE =           0.0000

            TOTAL IN =        4694.2002              TOTAL IN =          49.8019

          OUT:                                     OUT:
          ----                                     ----
             STORAGE =        1411.7693               STORAGE =           0.0000
       CONSTANT HEAD =         415.6931         CONSTANT HEAD =           2.8020
       RIVER LEAKAGE =         171.2389         RIVER LEAKAGE =           0.0000
            RECHARGE =        2695.5000              RECHARGE =          47.0000

           TOTAL OUT =        4694.2012             TOTAL OUT =          49.8020

            IN - OUT =      -9.7656E-04              IN - OUT =      -9.9182E-05

 PERCENT DISCREPANCY =          -0.00     PERCENT DISCREPANCY =          -0.00






         TIME SUMMARY AT END OF TIME STEP    1 IN STRESS PERIOD  133
                    SECONDS     MINUTES      HOURS       DAYS        YEARS
                    -----------------------------------------------------------
   TIME STEP LENGTH  86400.      1440.0      24.000      1.0000     2.73785E-03
 STRESS PERIOD TIME  86400.      1440.0      24.000      1.0000     2.73785E-03
         TOTAL TIME 1.14912E+07 1.91520E+05  3192.0      133.00     0.36413    
1
1
                            STRESS PERIOD NO.  134, LENGTH =   1.000000    
                            -----------------------------------------------

                              NUMBER OF TIME STEPS =     1

                               MULTIPLIER FOR DELT =     1.000

                            INITIAL TIME STEP SIZE =   1.000000    

 REUSING NON-PARAMETER RIVER REACHES FROM LAST STRESS PERIOD

      2 RIVER REACHES

                 RECHARGE = -3.400000E-03
 
 SOLVING FOR HEAD 

 OUTPUT CONTROL FOR STRESS PERIOD  134   TIME STEP    1
    SAVE HEAD FOR ALL LAYERS

 HEAD WILL BE SAVED ON UNIT   51 AT END OF TIME STEP    1, STRESS PERIOD  134
1
  VOLUMETRIC BUDGET FOR ENTIRE MODEL AT END OF TIME STEP    1, STRESS PERIOD 134
  ------------------------------------------------------------------------------

     CUMULATIVE VOLUMES      L**3       RATES FOR THIS TIME STEP      L**3/T
     ------------------                 ------------------------

           IN:                                      IN:
           ---                                      ---
             STORAGE =        2838.5693               STORAGE =          29.5481
       CONSTANT HEAD =           0.0000         CONSTANT HEAD =           0.0000
       RIVER LEAKAGE =         368.4263         RIVER LEAKAGE =           7.2472
            RECHARGE =        1524.0000              RECHARGE =           0.0000

            TOTAL IN =        4730.9956              TOTAL IN =          36.7953

          OUT:                                     OUT:
          ----                                     ----
             STORAGE =        1411.7693               STORAGE =           0.0000
       CONSTANT HEAD =         418.4885         CONSTANT HEAD =           2.7954
       RIVER LEAKAGE =         171.2389         RIVER LEAKAGE =           0.0000
            RECHARGE =        2729.5000              RECHARGE =          34.0000

           TOTAL OUT =        4730.9966             TOTAL OUT =          36.7954

            IN - OUT =      -9.7656E-04              IN - OUT =      -8.3923E-05

 PERCENT DISCREPANCY =          -0.00     PERCENT DISCREPANCY =          -0.00






         TIME SUMMARY AT END OF TIME STEP    1 IN STRESS PERIOD  134
                    SECONDS     MINUTES      HOURS       DAYS        YEARS
                    -----------------------------------------------------------
   TIME STEP LENGTH  86400.      1440.0      24.000      1.0000     2.73785E-03
 STRESS PERIOD TIME  86400.      1440.0      24.000      1.0000     2.73785E-03
         TOTAL TIME 1.15776E+07 1.92960E+05  3216.0      134.00     0.36687    
1
1
                            STRESS PERIOD NO.  135, LENGTH =   1.000000    
                            -----------------------------------------------

                              NUMBER OF TIME STEPS =     1

                               MULTIPLIER FOR DELT =     1.000

                            INITIAL TIME STEP SIZE =   1.000000    

 REUSING NON-PARAMETER RIVER REACHES FROM LAST STRESS PERIOD

      2 RIVER REACHES

                 RECHARGE =  1.400000E-03
 
 SOLVING FOR HEAD 

 OUTPUT CONTROL FOR STRESS PERIOD  135   TIME STEP    1
    SAVE HEAD FOR ALL LAYERS

 HEAD WILL BE SAVED ON UNIT   51 AT END OF TIME STEP    1, STRESS PERIOD  135
1
  VOLUMETRIC BUDGET FOR ENTIRE MODEL AT END OF TIME STEP    1, STRESS PERIOD 135
  ------------------------------------------------------------------------------

     CUMULATIVE VOLUMES      L**3       RATES FOR THIS TIME STEP      L**3/T
     ------------------                 ------------------------

           IN:                                      IN:
           ---                                      ---
             STORAGE =        2839.0012               STORAGE =           0.4320
       CONSTANT HEAD =           0.0000         CONSTANT HEAD =           0.0000
       RIVER LEAKAGE =         374.4152         RIVER LEAKAGE =           5.9889
            RECHARGE =        1538.0000              RECHARGE =          14.0000

            TOTAL IN =        4751.4165              TOTAL IN =          20.4208

          OUT:                                     OUT:
          ----                                     ----
             STORAGE =        1429.3999               STORAGE =          17.6306
       CONSTANT HEAD =         421.2787         CONSTANT HEAD =           2.7902
       RIVER LEAKAGE =         171.2389         RIVER LEAKAGE =           0.0000
            RECHARGE =        2729.5000              RECHARGE =           0.0000

           TOTAL OUT =        4751.4175             TOTAL OUT =          20.4208

            IN - OUT =      -9.7656E-04              IN - OUT =       1.9073E-05

 PERCENT DISCREPANCY =          -0.00     PERCENT DISCREPANCY =           0.00






         TIME SUMMARY AT END OF TIME STEP    1 IN STRESS PERIOD  135
                    SECONDS     MINUTES      HOURS       DAYS        YEARS
                    -----------------------------------------------------------
   TIME STEP LENGTH  86400.      1440.0      24.000      1.0000     2.73785E-03
 STRESS PERIOD TIME  86400.      1440.0      24.000      1.0000     2.73785E-03
         TOTAL TIME 1.16640E+07 1.94400E+05  3240.0      135.00     0.36961    
1
1
                            STRESS PERIOD NO.  136, LENGTH =   1.000000    
                            -----------------------------------------------

                              NUMBER OF TIME STEPS =     1

                               MULTIPLIER FOR DELT =     1.000

                            INITIAL TIME STEP SIZE =   1.000000    

 REUSING NON-PARAMETER RIVER REACHES FROM LAST STRESS PERIOD

      2 RIVER REACHES

                 RECHARGE =  2.500000E-02
 
 SOLVING FOR HEAD 

 OUTPUT CONTROL FOR STRESS PERIOD  136   TIME STEP    1
    SAVE HEAD FOR ALL LAYERS

 HEAD WILL BE SAVED ON UNIT   51 AT END OF TIME STEP    1, STRESS PERIOD  136
1
  VOLUMETRIC BUDGET FOR ENTIRE MODEL AT END OF TIME STEP    1, STRESS PERIOD 136
  ------------------------------------------------------------------------------

     CUMULATIVE VOLUMES      L**3       RATES FOR THIS TIME STEP      L**3/T
     ------------------                 ------------------------

           IN:                                      IN:
           ---                                      ---
             STORAGE =        2839.2754               STORAGE =           0.2741
       CONSTANT HEAD =           0.0000         CONSTANT HEAD =           0.0000
       RIVER LEAKAGE =         374.4152         RIVER LEAKAGE =           0.0000
            RECHARGE =        1788.0000              RECHARGE =         250.0000

            TOTAL IN =        5001.6904              TOTAL IN =         250.2741

          OUT:                                     OUT:
          ----                                     ----
             STORAGE =        1674.0227               STORAGE =         244.6229
       CONSTANT HEAD =         424.0725         CONSTANT HEAD =           2.7938
       RIVER LEAKAGE =         174.0964         RIVER LEAKAGE =           2.8575
            RECHARGE =        2729.5000              RECHARGE =           0.0000

           TOTAL OUT =        5001.6914             TOTAL OUT =         250.2741

            IN - OUT =      -9.7656E-04              IN - OUT =       4.5776E-05

 PERCENT DISCREPANCY =          -0.00     PERCENT DISCREPANCY =           0.00






         TIME SUMMARY AT END OF TIME STEP    1 IN STRESS PERIOD  136
                    SECONDS     MINUTES      HOURS       DAYS        YEARS
                    -----------------------------------------------------------
   TIME STEP LENGTH  86400.      1440.0      24.000      1.0000     2.73785E-03
 STRESS PERIOD TIME  86400.      1440.0      24.000      1.0000     2.73785E-03
         TOTAL TIME 1.17504E+07 1.95840E+05  3264.0      136.00     0.37235    
1
1
                            STRESS PERIOD NO.  137, LENGTH =   1.000000    
                            -----------------------------------------------

                              NUMBER OF TIME STEPS =     1

                               MULTIPLIER FOR DELT =     1.000

                            INITIAL TIME STEP SIZE =   1.000000    

 REUSING NON-PARAMETER RIVER REACHES FROM LAST STRESS PERIOD

      2 RIVER REACHES

                 RECHARGE = -2.900000E-03
 
 SOLVING FOR HEAD 

 OUTPUT CONTROL FOR STRESS PERIOD  137   TIME STEP    1
    SAVE HEAD FOR ALL LAYERS

 HEAD WILL BE SAVED ON UNIT   51 AT END OF TIME STEP    1, STRESS PERIOD  137
1
  VOLUMETRIC BUDGET FOR ENTIRE MODEL AT END OF TIME STEP    1, STRESS PERIOD 137
  ------------------------------------------------------------------------------

     CUMULATIVE VOLUMES      L**3       RATES FOR THIS TIME STEP      L**3/T
     ------------------                 ------------------------

           IN:                                      IN:
           ---                                      ---
             STORAGE =        2869.7812               STORAGE =          30.5060
       CONSTANT HEAD =           0.0000         CONSTANT HEAD =           0.0000
       RIVER LEAKAGE =         375.7008         RIVER LEAKAGE =           1.2856
            RECHARGE =        1788.0000              RECHARGE =           0.0000

            TOTAL IN =        5033.4819              TOTAL IN =          31.7916

          OUT:                                     OUT:
          ----                                     ----
             STORAGE =        1674.0227               STORAGE =           0.0000
       CONSTANT HEAD =         426.8641         CONSTANT HEAD =           2.7916
       RIVER LEAKAGE =         174.0964         RIVER LEAKAGE =           0.0000
            RECHARGE =        2758.5000              RECHARGE =          29.0000

           TOTAL OUT =        5033.4834             TOTAL OUT =          31.7916

            IN - OUT =      -1.4648E-03              IN - OUT =      -4.3869E-05

 PERCENT DISCREPANCY =          -0.00     PERCENT DISCREPANCY =          -0.00






         TIME SUMMARY AT END OF TIME STEP    1 IN STRESS PERIOD  137
                    SECONDS     MINUTES      HOURS       DAYS        YEARS
                    -----------------------------------------------------------
   TIME STEP LENGTH  86400.      1440.0      24.000      1.0000     2.73785E-03
 STRESS PERIOD TIME  86400.      1440.0      24.000      1.0000     2.73785E-03
         TOTAL TIME 1.18368E+07 1.97280E+05  3288.0      137.00     0.37509    
1
1
                            STRESS PERIOD NO.  138, LENGTH =   1.000000    
                            -----------------------------------------------

                              NUMBER OF TIME STEPS =     1

                               MULTIPLIER FOR DELT =     1.000

                            INITIAL TIME STEP SIZE =   1.000000    

 REUSING NON-PARAMETER RIVER REACHES FROM LAST STRESS PERIOD

      2 RIVER REACHES

                 RECHARGE =  1.530000E-02
 
 SOLVING FOR HEAD 

 OUTPUT CONTROL FOR STRESS PERIOD  138   TIME STEP    1
    SAVE HEAD FOR ALL LAYERS

 HEAD WILL BE SAVED ON UNIT   51 AT END OF TIME STEP    1, STRESS PERIOD  138
1
  VOLUMETRIC BUDGET FOR ENTIRE MODEL AT END OF TIME STEP    1, STRESS PERIOD 138
  ------------------------------------------------------------------------------

     CUMULATIVE VOLUMES      L**3       RATES FOR THIS TIME STEP      L**3/T
     ------------------                 ------------------------

           IN:                                      IN:
           ---                                      ---
             STORAGE =        2869.9797               STORAGE =           0.1984
       CONSTANT HEAD =           0.0000         CONSTANT HEAD =           0.0000
       RIVER LEAKAGE =         375.7008         RIVER LEAKAGE =           0.0000
            RECHARGE =        1941.0000              RECHARGE =         153.0000

            TOTAL IN =        5186.6807              TOTAL IN =         153.1984

          OUT:                                     OUT:
          ----                                     ----
             STORAGE =        1821.1023               STORAGE =         147.0795
       CONSTANT HEAD =         429.6586         CONSTANT HEAD =           2.7945
       RIVER LEAKAGE =         177.4207         RIVER LEAKAGE =           3.3243
            RECHARGE =        2758.5000              RECHARGE =           0.0000

           TOTAL OUT =        5186.6816             TOTAL OUT =         153.1983

            IN - OUT =      -9.7656E-04              IN - OUT =       4.5776E-05

 PERCENT DISCREPANCY =          -0.00     PERCENT DISCREPANCY =           0.00






         TIME SUMMARY AT END OF TIME STEP    1 IN STRESS PERIOD  138
                    SECONDS     MINUTES      HOURS       DAYS        YEARS
                    -----------------------------------------------------------
   TIME STEP LENGTH  86400.      1440.0      24.000      1.0000     2.73785E-03
 STRESS PERIOD TIME  86400.      1440.0      24.000      1.0000     2.73785E-03
         TOTAL TIME 1.19232E+07 1.98720E+05  3312.0      138.00     0.37782    
1
1
                            STRESS PERIOD NO.  139, LENGTH =   1.000000    
                            -----------------------------------------------

                              NUMBER OF TIME STEPS =     1

                               MULTIPLIER FOR DELT =     1.000

                            INITIAL TIME STEP SIZE =   1.000000    

 REUSING NON-PARAMETER RIVER REACHES FROM LAST STRESS PERIOD

      2 RIVER REACHES

                 RECHARGE = -2.675000E-03
 
 SOLVING FOR HEAD 

 OUTPUT CONTROL FOR STRESS PERIOD  139   TIME STEP    1
    SAVE HEAD FOR ALL LAYERS

 HEAD WILL BE SAVED ON UNIT   51 AT END OF TIME STEP    1, STRESS PERIOD  139
1
  VOLUMETRIC BUDGET FOR ENTIRE MODEL AT END OF TIME STEP    1, STRESS PERIOD 139
  ------------------------------------------------------------------------------

     CUMULATIVE VOLUMES      L**3       RATES FOR THIS TIME STEP      L**3/T
     ------------------                 ------------------------

           IN:                                      IN:
           ---                                      ---
             STORAGE =        2899.4849               STORAGE =          29.5051
       CONSTANT HEAD =           0.0000         CONSTANT HEAD =           0.0000
       RIVER LEAKAGE =         375.7389         RIVER LEAKAGE =       3.8125E-02
            RECHARGE =        1941.0000              RECHARGE =           0.0000

            TOTAL IN =        5216.2236              TOTAL IN =          29.5433

          OUT:                                     OUT:
          ----                                     ----
             STORAGE =        1821.1023               STORAGE =           0.0000
       CONSTANT HEAD =         432.4517         CONSTANT HEAD =           2.7931
       RIVER LEAKAGE =         177.4207         RIVER LEAKAGE =           0.0000
            RECHARGE =        2785.2500              RECHARGE =          26.7500

           TOTAL OUT =        5216.2246             TOTAL OUT =          29.5431

            IN - OUT =      -9.7656E-04              IN - OUT =       1.3161E-04

 PERCENT DISCREPANCY =          -0.00     PERCENT DISCREPANCY =           0.00






         TIME SUMMARY AT END OF TIME STEP    1 IN STRESS PERIOD  139
                    SECONDS     MINUTES      HOURS       DAYS        YEARS
                    -----------------------------------------------------------
   TIME STEP LENGTH  86400.      1440.0      24.000      1.0000     2.73785E-03
 STRESS PERIOD TIME  86400.      1440.0      24.000      1.0000     2.73785E-03
         TOTAL TIME 1.20096E+07 2.00160E+05  3336.0      139.00     0.38056    
1
1
                            STRESS PERIOD NO.  140, LENGTH =   1.000000    
                            -----------------------------------------------

                              NUMBER OF TIME STEPS =     1

                               MULTIPLIER FOR DELT =     1.000

                            INITIAL TIME STEP SIZE =   1.000000    

 REUSING NON-PARAMETER RIVER REACHES FROM LAST STRESS PERIOD

      2 RIVER REACHES

                 RECHARGE = -5.000000E-04
 
 SOLVING FOR HEAD 

 OUTPUT CONTROL FOR STRESS PERIOD  140   TIME STEP    1
    SAVE HEAD FOR ALL LAYERS

 HEAD WILL BE SAVED ON UNIT   51 AT END OF TIME STEP    1, STRESS PERIOD  140
1
  VOLUMETRIC BUDGET FOR ENTIRE MODEL AT END OF TIME STEP    1, STRESS PERIOD 140
  ------------------------------------------------------------------------------

     CUMULATIVE VOLUMES      L**3       RATES FOR THIS TIME STEP      L**3/T
     ------------------                 ------------------------

           IN:                                      IN:
           ---                                      ---
             STORAGE =        2906.4092               STORAGE =           6.9242
       CONSTANT HEAD =           0.0000         CONSTANT HEAD =           0.0000
       RIVER LEAKAGE =         376.6061         RIVER LEAKAGE =           0.8672
            RECHARGE =        1941.0000              RECHARGE =           0.0000

            TOTAL IN =        5224.0156              TOTAL IN =           7.7914

          OUT:                                     OUT:
          ----                                     ----
             STORAGE =        1821.1023               STORAGE =           0.0000
       CONSTANT HEAD =         435.2431         CONSTANT HEAD =           2.7914
       RIVER LEAKAGE =         177.4207         RIVER LEAKAGE =           0.0000
            RECHARGE =        2790.2500              RECHARGE =           5.0000

           TOTAL OUT =        5224.0161             TOTAL OUT =           7.7914

            IN - OUT =      -4.8828E-04              IN - OUT =       8.3923E-05

 PERCENT DISCREPANCY =          -0.00     PERCENT DISCREPANCY =           0.00






         TIME SUMMARY AT END OF TIME STEP    1 IN STRESS PERIOD  140
                    SECONDS     MINUTES      HOURS       DAYS        YEARS
                    -----------------------------------------------------------
   TIME STEP LENGTH  86400.      1440.0      24.000      1.0000     2.73785E-03
 STRESS PERIOD TIME  86400.      1440.0      24.000      1.0000     2.73785E-03
         TOTAL TIME 1.20960E+07 2.01600E+05  3360.0      140.00     0.38330    
1
1
                            STRESS PERIOD NO.  141, LENGTH =   1.000000    
                            -----------------------------------------------

                              NUMBER OF TIME STEPS =     1

                               MULTIPLIER FOR DELT =     1.000

                            INITIAL TIME STEP SIZE =   1.000000    

 REUSING NON-PARAMETER RIVER REACHES FROM LAST STRESS PERIOD

      2 RIVER REACHES

                 RECHARGE = -5.075000E-03
 
 SOLVING FOR HEAD 

 OUTPUT CONTROL FOR STRESS PERIOD  141   TIME STEP    1
    SAVE HEAD FOR ALL LAYERS

 HEAD WILL BE SAVED ON UNIT   51 AT END OF TIME STEP    1, STRESS PERIOD  141
1
  VOLUMETRIC BUDGET FOR ENTIRE MODEL AT END OF TIME STEP    1, STRESS PERIOD 141
  ------------------------------------------------------------------------------

     CUMULATIVE VOLUMES      L**3       RATES FOR THIS TIME STEP      L**3/T
     ------------------                 ------------------------

           IN:                                      IN:
           ---                                      ---
             STORAGE =        2956.9377               STORAGE =          50.5286
       CONSTANT HEAD =           0.0000         CONSTANT HEAD =           0.0000
       RIVER LEAKAGE =         379.6151         RIVER LEAKAGE =           3.0090
            RECHARGE =        1941.0000              RECHARGE =           0.0000

            TOTAL IN =        5277.5527              TOTAL IN =          53.5376

          OUT:                                     OUT:
          ----                                     ----
             STORAGE =        1821.1023               STORAGE =           0.0000
       CONSTANT HEAD =         438.0307         CONSTANT HEAD =           2.7876
       RIVER LEAKAGE =         177.4207         RIVER LEAKAGE =           0.0000
            RECHARGE =        2841.0000              RECHARGE =          50.7500

           TOTAL OUT =        5277.5537             TOTAL OUT =          53.5377

            IN - OUT =      -9.7656E-04              IN - OUT =      -5.7220E-05

 PERCENT DISCREPANCY =          -0.00     PERCENT DISCREPANCY =          -0.00






         TIME SUMMARY AT END OF TIME STEP    1 IN STRESS PERIOD  141
                    SECONDS     MINUTES      HOURS       DAYS        YEARS
                    -----------------------------------------------------------
   TIME STEP LENGTH  86400.      1440.0      24.000      1.0000     2.73785E-03
 STRESS PERIOD TIME  86400.      1440.0      24.000      1.0000     2.73785E-03
         TOTAL TIME 1.21824E+07 2.03040E+05  3384.0      141.00     0.38604    
1
1
                            STRESS PERIOD NO.  142, LENGTH =   1.000000    
                            -----------------------------------------------

                              NUMBER OF TIME STEPS =     1

                               MULTIPLIER FOR DELT =     1.000

                            INITIAL TIME STEP SIZE =   1.000000    

 REUSING NON-PARAMETER RIVER REACHES FROM LAST STRESS PERIOD

      2 RIVER REACHES

                 RECHARGE = -4.800000E-03
 
 SOLVING FOR HEAD 

 OUTPUT CONTROL FOR STRESS PERIOD  142   TIME STEP    1
    SAVE HEAD FOR ALL LAYERS

 HEAD WILL BE SAVED ON UNIT   51 AT END OF TIME STEP    1, STRESS PERIOD  142
1
  VOLUMETRIC BUDGET FOR ENTIRE MODEL AT END OF TIME STEP    1, STRESS PERIOD 142
  ------------------------------------------------------------------------------

     CUMULATIVE VOLUMES      L**3       RATES FOR THIS TIME STEP      L**3/T
     ------------------                 ------------------------

           IN:                                      IN:
           ---                                      ---
             STORAGE =        3003.4309               STORAGE =          46.4931
       CONSTANT HEAD =           0.0000         CONSTANT HEAD =           0.0000
       RIVER LEAKAGE =         383.9051         RIVER LEAKAGE =           4.2900
            RECHARGE =        1941.0000              RECHARGE =           0.0000

            TOTAL IN =        5328.3359              TOTAL IN =          50.7831

          OUT:                                     OUT:
          ----                                     ----
             STORAGE =        1821.1023               STORAGE =           0.0000
       CONSTANT HEAD =         440.8138         CONSTANT HEAD =           2.7831
       RIVER LEAKAGE =         177.4207         RIVER LEAKAGE =           0.0000
            RECHARGE =        2889.0000              RECHARGE =          48.0000

           TOTAL OUT =        5328.3369             TOTAL OUT =          50.7831

            IN - OUT =      -9.7656E-04              IN - OUT =       7.6294E-06

 PERCENT DISCREPANCY =          -0.00     PERCENT DISCREPANCY =           0.00






         TIME SUMMARY AT END OF TIME STEP    1 IN STRESS PERIOD  142
                    SECONDS     MINUTES      HOURS       DAYS        YEARS
                    -----------------------------------------------------------
   TIME STEP LENGTH  86400.      1440.0      24.000      1.0000     2.73785E-03
 STRESS PERIOD TIME  86400.      1440.0      24.000      1.0000     2.73785E-03
         TOTAL TIME 1.22688E+07 2.04480E+05  3408.0      142.00     0.38877    
1
1
                            STRESS PERIOD NO.  143, LENGTH =   1.000000    
                            -----------------------------------------------

                              NUMBER OF TIME STEPS =     1

                               MULTIPLIER FOR DELT =     1.000

                            INITIAL TIME STEP SIZE =   1.000000    

 REUSING NON-PARAMETER RIVER REACHES FROM LAST STRESS PERIOD

      2 RIVER REACHES

                 RECHARGE = -3.700000E-03
 
 SOLVING FOR HEAD 

 OUTPUT CONTROL FOR STRESS PERIOD  143   TIME STEP    1
    SAVE HEAD FOR ALL LAYERS

 HEAD WILL BE SAVED ON UNIT   51 AT END OF TIME STEP    1, STRESS PERIOD  143
1
  VOLUMETRIC BUDGET FOR ENTIRE MODEL AT END OF TIME STEP    1, STRESS PERIOD 143
  ------------------------------------------------------------------------------

     CUMULATIVE VOLUMES      L**3       RATES FOR THIS TIME STEP      L**3/T
     ------------------                 ------------------------

           IN:                                      IN:
           ---                                      ---
             STORAGE =        3038.3054               STORAGE =          34.8746
       CONSTANT HEAD =           0.0000         CONSTANT HEAD =           0.0000
       RIVER LEAKAGE =         388.8087         RIVER LEAKAGE =           4.9036
            RECHARGE =        1941.0000              RECHARGE =           0.0000

            TOTAL IN =        5368.1143              TOTAL IN =          39.7782

          OUT:                                     OUT:
          ----                                     ----
             STORAGE =        1821.1023               STORAGE =           0.0000
       CONSTANT HEAD =         443.5921         CONSTANT HEAD =           2.7783
       RIVER LEAKAGE =         177.4207         RIVER LEAKAGE =           0.0000
            RECHARGE =        2926.0000              RECHARGE =          37.0000

           TOTAL OUT =        5368.1152             TOTAL OUT =          39.7783

            IN - OUT =      -9.7656E-04              IN - OUT =      -3.4332E-05

 PERCENT DISCREPANCY =          -0.00     PERCENT DISCREPANCY =          -0.00






         TIME SUMMARY AT END OF TIME STEP    1 IN STRESS PERIOD  143
                    SECONDS     MINUTES      HOURS       DAYS        YEARS
                    -----------------------------------------------------------
   TIME STEP LENGTH  86400.      1440.0      24.000      1.0000     2.73785E-03
 STRESS PERIOD TIME  86400.      1440.0      24.000      1.0000     2.73785E-03
         TOTAL TIME 1.23552E+07 2.05920E+05  3432.0      143.00     0.39151    
1
1
                            STRESS PERIOD NO.  144, LENGTH =   1.000000    
                            -----------------------------------------------

                              NUMBER OF TIME STEPS =     1

                               MULTIPLIER FOR DELT =     1.000

                            INITIAL TIME STEP SIZE =   1.000000    

 REUSING NON-PARAMETER RIVER REACHES FROM LAST STRESS PERIOD

      2 RIVER REACHES

                 RECHARGE =  1.850000E-02
 
 SOLVING FOR HEAD 

 OUTPUT CONTROL FOR STRESS PERIOD  144   TIME STEP    1
    SAVE HEAD FOR ALL LAYERS

 HEAD WILL BE SAVED ON UNIT   51 AT END OF TIME STEP    1, STRESS PERIOD  144
1
  VOLUMETRIC BUDGET FOR ENTIRE MODEL AT END OF TIME STEP    1, STRESS PERIOD 144
  ------------------------------------------------------------------------------

     CUMULATIVE VOLUMES      L**3       RATES FOR THIS TIME STEP      L**3/T
     ------------------                 ------------------------

           IN:                                      IN:
           ---                                      ---
             STORAGE =        3038.4780               STORAGE =           0.1727
       CONSTANT HEAD =           0.0000         CONSTANT HEAD =           0.0000
       RIVER LEAKAGE =         388.8087         RIVER LEAKAGE =           0.0000
            RECHARGE =        2126.0000              RECHARGE =         185.0000

            TOTAL IN =        5553.2866              TOTAL IN =         185.1727

          OUT:                                     OUT:
          ----                                     ----
             STORAGE =        2001.2805               STORAGE =         180.1782
       CONSTANT HEAD =         446.3730         CONSTANT HEAD =           2.7808
       RIVER LEAKAGE =         179.6343         RIVER LEAKAGE =           2.2136
            RECHARGE =        2926.0000              RECHARGE =           0.0000

           TOTAL OUT =        5553.2881             TOTAL OUT =         185.1727

            IN - OUT =      -1.4648E-03              IN - OUT =       3.0518E-05

 PERCENT DISCREPANCY =          -0.00     PERCENT DISCREPANCY =           0.00






         TIME SUMMARY AT END OF TIME STEP    1 IN STRESS PERIOD  144
                    SECONDS     MINUTES      HOURS       DAYS        YEARS
                    -----------------------------------------------------------
   TIME STEP LENGTH  86400.      1440.0      24.000      1.0000     2.73785E-03
 STRESS PERIOD TIME  86400.      1440.0      24.000      1.0000     2.73785E-03
         TOTAL TIME 1.24416E+07 2.07360E+05  3456.0      144.00     0.39425    
1
1
                            STRESS PERIOD NO.  145, LENGTH =   1.000000    
                            -----------------------------------------------

                              NUMBER OF TIME STEPS =     1

                               MULTIPLIER FOR DELT =     1.000

                            INITIAL TIME STEP SIZE =   1.000000    

 REUSING NON-PARAMETER RIVER REACHES FROM LAST STRESS PERIOD

      2 RIVER REACHES

                 RECHARGE = -4.800000E-03
 
 SOLVING FOR HEAD 

 OUTPUT CONTROL FOR STRESS PERIOD  145   TIME STEP    1
    SAVE HEAD FOR ALL LAYERS

 HEAD WILL BE SAVED ON UNIT   51 AT END OF TIME STEP    1, STRESS PERIOD  145
1
  VOLUMETRIC BUDGET FOR ENTIRE MODEL AT END OF TIME STEP    1, STRESS PERIOD 145
  ------------------------------------------------------------------------------

     CUMULATIVE VOLUMES      L**3       RATES FOR THIS TIME STEP      L**3/T
     ------------------                 ------------------------

           IN:                                      IN:
           ---                                      ---
             STORAGE =        3087.6277               STORAGE =          49.1497
       CONSTANT HEAD =           0.0000         CONSTANT HEAD =           0.0000
       RIVER LEAKAGE =         390.4374         RIVER LEAKAGE =           1.6287
            RECHARGE =        2126.0000              RECHARGE =           0.0000

            TOTAL IN =        5604.0654              TOTAL IN =          50.7784

          OUT:                                     OUT:
          ----                                     ----
             STORAGE =        2001.2805               STORAGE =           0.0000
       CONSTANT HEAD =         449.1513         CONSTANT HEAD =           2.7784
       RIVER LEAKAGE =         179.6343         RIVER LEAKAGE =           0.0000
            RECHARGE =        2974.0000              RECHARGE =          48.0000

           TOTAL OUT =        5604.0664             TOTAL OUT =          50.7784

            IN - OUT =      -9.7656E-04              IN - OUT =      -3.8147E-06

 PERCENT DISCREPANCY =          -0.00     PERCENT DISCREPANCY =          -0.00






         TIME SUMMARY AT END OF TIME STEP    1 IN STRESS PERIOD  145
                    SECONDS     MINUTES      HOURS       DAYS        YEARS
                    -----------------------------------------------------------
   TIME STEP LENGTH  86400.      1440.0      24.000      1.0000     2.73785E-03
 STRESS PERIOD TIME  86400.      1440.0      24.000      1.0000     2.73785E-03
         TOTAL TIME 1.25280E+07 2.08800E+05  3480.0      145.00     0.39699    
1
1
                            STRESS PERIOD NO.  146, LENGTH =   1.000000    
                            -----------------------------------------------

                              NUMBER OF TIME STEPS =     1

                               MULTIPLIER FOR DELT =     1.000

                            INITIAL TIME STEP SIZE =   1.000000    

 REUSING NON-PARAMETER RIVER REACHES FROM LAST STRESS PERIOD

      2 RIVER REACHES

                 RECHARGE =  1.000000E-04
 
 SOLVING FOR HEAD 

 OUTPUT CONTROL FOR STRESS PERIOD  146   TIME STEP    1
    SAVE HEAD FOR ALL LAYERS

 HEAD WILL BE SAVED ON UNIT   51 AT END OF TIME STEP    1, STRESS PERIOD  146
1
  VOLUMETRIC BUDGET FOR ENTIRE MODEL AT END OF TIME STEP    1, STRESS PERIOD 146
  ------------------------------------------------------------------------------

     CUMULATIVE VOLUMES      L**3       RATES FOR THIS TIME STEP      L**3/T
     ------------------                 ------------------------

           IN:                                      IN:
           ---                                      ---
             STORAGE =        3089.0776               STORAGE =           1.4500
       CONSTANT HEAD =           0.0000         CONSTANT HEAD =           0.0000
       RIVER LEAKAGE =         392.1704         RIVER LEAKAGE =           1.7329
            RECHARGE =        2127.0000              RECHARGE =           1.0000

            TOTAL IN =        5608.2480              TOTAL IN =           4.1829

          OUT:                                     OUT:
          ----                                     ----
             STORAGE =        2002.6871               STORAGE =           1.4066
       CONSTANT HEAD =         451.9276         CONSTANT HEAD =           2.7763
       RIVER LEAKAGE =         179.6343         RIVER LEAKAGE =           0.0000
            RECHARGE =        2974.0000              RECHARGE =           0.0000

           TOTAL OUT =        5608.2490             TOTAL OUT =           4.1829

            IN - OUT =      -9.7656E-04              IN - OUT =       2.7657E-05

 PERCENT DISCREPANCY =          -0.00     PERCENT DISCREPANCY =           0.00






         TIME SUMMARY AT END OF TIME STEP    1 IN STRESS PERIOD  146
                    SECONDS     MINUTES      HOURS       DAYS        YEARS
                    -----------------------------------------------------------
   TIME STEP LENGTH  86400.      1440.0      24.000      1.0000     2.73785E-03
 STRESS PERIOD TIME  86400.      1440.0      24.000      1.0000     2.73785E-03
         TOTAL TIME 1.26144E+07 2.10240E+05  3504.0      146.00     0.39973    
1
1
                            STRESS PERIOD NO.  147, LENGTH =   1.000000    
                            -----------------------------------------------

                              NUMBER OF TIME STEPS =     1

                               MULTIPLIER FOR DELT =     1.000

                            INITIAL TIME STEP SIZE =   1.000000    

 REUSING NON-PARAMETER RIVER REACHES FROM LAST STRESS PERIOD

      2 RIVER REACHES

                 RECHARGE =  8.800000E-03
 
 SOLVING FOR HEAD 

 OUTPUT CONTROL FOR STRESS PERIOD  147   TIME STEP    1
    SAVE HEAD FOR ALL LAYERS

 HEAD WILL BE SAVED ON UNIT   51 AT END OF TIME STEP    1, STRESS PERIOD  147
1
  VOLUMETRIC BUDGET FOR ENTIRE MODEL AT END OF TIME STEP    1, STRESS PERIOD 147
  ------------------------------------------------------------------------------

     CUMULATIVE VOLUMES      L**3       RATES FOR THIS TIME STEP      L**3/T
     ------------------                 ------------------------

           IN:                                      IN:
           ---                                      ---
             STORAGE =        3089.2217               STORAGE =           0.1441
       CONSTANT HEAD =           0.0000         CONSTANT HEAD =           0.0000
       RIVER LEAKAGE =         392.1704         RIVER LEAKAGE =           0.0000
            RECHARGE =        2215.0000              RECHARGE =          88.0000

            TOTAL IN =        5696.3921              TOTAL IN =          88.1441

          OUT:                                     OUT:
          ----                                     ----
             STORAGE =        2086.9124               STORAGE =          84.2252
       CONSTANT HEAD =         454.7048         CONSTANT HEAD =           2.7772
       RIVER LEAKAGE =         180.7760         RIVER LEAKAGE =           1.1417
            RECHARGE =        2974.0000              RECHARGE =           0.0000

           TOTAL OUT =        5696.3931             TOTAL OUT =          88.1440

            IN - OUT =      -9.7656E-04              IN - OUT =       4.5776E-05

 PERCENT DISCREPANCY =          -0.00     PERCENT DISCREPANCY =           0.00






         TIME SUMMARY AT END OF TIME STEP    1 IN STRESS PERIOD  147
                    SECONDS     MINUTES      HOURS       DAYS        YEARS
                    -----------------------------------------------------------
   TIME STEP LENGTH  86400.      1440.0      24.000      1.0000     2.73785E-03
 STRESS PERIOD TIME  86400.      1440.0      24.000      1.0000     2.73785E-03
         TOTAL TIME 1.27008E+07 2.11680E+05  3528.0      147.00     0.40246    
1
1
                            STRESS PERIOD NO.  148, LENGTH =   1.000000    
                            -----------------------------------------------

                              NUMBER OF TIME STEPS =     1

                               MULTIPLIER FOR DELT =     1.000

                            INITIAL TIME STEP SIZE =   1.000000    

 REUSING NON-PARAMETER RIVER REACHES FROM LAST STRESS PERIOD

      2 RIVER REACHES

                 RECHARGE = -1.100000E-03
 
 SOLVING FOR HEAD 

 OUTPUT CONTROL FOR STRESS PERIOD  148   TIME STEP    1
    SAVE HEAD FOR ALL LAYERS

 HEAD WILL BE SAVED ON UNIT   51 AT END OF TIME STEP    1, STRESS PERIOD  148
1
  VOLUMETRIC BUDGET FOR ENTIRE MODEL AT END OF TIME STEP    1, STRESS PERIOD 148
  ------------------------------------------------------------------------------

     CUMULATIVE VOLUMES      L**3       RATES FOR THIS TIME STEP      L**3/T
     ------------------                 ------------------------

           IN:                                      IN:
           ---                                      ---
             STORAGE =        3102.4573               STORAGE =          13.2356
       CONSTANT HEAD =           0.0000         CONSTANT HEAD =           0.0000
       RIVER LEAKAGE =         392.7107         RIVER LEAKAGE =           0.5403
            RECHARGE =        2215.0000              RECHARGE =           0.0000

            TOTAL IN =        5710.1680              TOTAL IN =          13.7759

          OUT:                                     OUT:
          ----                                     ----
             STORAGE =        2086.9124               STORAGE =           0.0000
       CONSTANT HEAD =         457.4807         CONSTANT HEAD =           2.7759
       RIVER LEAKAGE =         180.7760         RIVER LEAKAGE =           0.0000
            RECHARGE =        2985.0000              RECHARGE =          11.0000

           TOTAL OUT =        5710.1689             TOTAL OUT =          13.7759

            IN - OUT =      -9.7656E-04              IN - OUT =       3.8147E-06

 PERCENT DISCREPANCY =          -0.00     PERCENT DISCREPANCY =           0.00






         TIME SUMMARY AT END OF TIME STEP    1 IN STRESS PERIOD  148
                    SECONDS     MINUTES      HOURS       DAYS        YEARS
                    -----------------------------------------------------------
   TIME STEP LENGTH  86400.      1440.0      24.000      1.0000     2.73785E-03
 STRESS PERIOD TIME  86400.      1440.0      24.000      1.0000     2.73785E-03
         TOTAL TIME 1.27872E+07 2.13120E+05  3552.0      148.00     0.40520    
1
1
                            STRESS PERIOD NO.  149, LENGTH =   1.000000    
                            -----------------------------------------------

                              NUMBER OF TIME STEPS =     1

                               MULTIPLIER FOR DELT =     1.000

                            INITIAL TIME STEP SIZE =   1.000000    

 REUSING NON-PARAMETER RIVER REACHES FROM LAST STRESS PERIOD

      2 RIVER REACHES

                 RECHARGE =  6.200000E-03
 
 SOLVING FOR HEAD 

 OUTPUT CONTROL FOR STRESS PERIOD  149   TIME STEP    1
    SAVE HEAD FOR ALL LAYERS

 HEAD WILL BE SAVED ON UNIT   51 AT END OF TIME STEP    1, STRESS PERIOD  149
1
  VOLUMETRIC BUDGET FOR ENTIRE MODEL AT END OF TIME STEP    1, STRESS PERIOD 149
  ------------------------------------------------------------------------------

     CUMULATIVE VOLUMES      L**3       RATES FOR THIS TIME STEP      L**3/T
     ------------------                 ------------------------

           IN:                                      IN:
           ---                                      ---
             STORAGE =        3102.5708               STORAGE =           0.1134
       CONSTANT HEAD =           0.0000         CONSTANT HEAD =           0.0000
       RIVER LEAKAGE =         392.7107         RIVER LEAKAGE =           0.0000
            RECHARGE =        2277.0000              RECHARGE =          62.0000

            TOTAL IN =        5772.2812              TOTAL IN =          62.1134

          OUT:                                     OUT:
          ----                                     ----
             STORAGE =        2145.0251               STORAGE =          58.1129
       CONSTANT HEAD =         460.2573         CONSTANT HEAD =           2.7766
       RIVER LEAKAGE =         181.9998         RIVER LEAKAGE =           1.2238
            RECHARGE =        2985.0000              RECHARGE =           0.0000

           TOTAL OUT =        5772.2822             TOTAL OUT =          62.1133

            IN - OUT =      -9.7656E-04              IN - OUT =       1.4496E-04

 PERCENT DISCREPANCY =          -0.00     PERCENT DISCREPANCY =           0.00






         TIME SUMMARY AT END OF TIME STEP    1 IN STRESS PERIOD  149
                    SECONDS     MINUTES      HOURS       DAYS        YEARS
                    -----------------------------------------------------------
   TIME STEP LENGTH  86400.      1440.0      24.000      1.0000     2.73785E-03
 STRESS PERIOD TIME  86400.      1440.0      24.000      1.0000     2.73785E-03
         TOTAL TIME 1.28736E+07 2.14560E+05  3576.0      149.00     0.40794    
1
1
                            STRESS PERIOD NO.  150, LENGTH =   1.000000    
                            -----------------------------------------------

                              NUMBER OF TIME STEPS =     1

                               MULTIPLIER FOR DELT =     1.000

                            INITIAL TIME STEP SIZE =   1.000000    

 REUSING NON-PARAMETER RIVER REACHES FROM LAST STRESS PERIOD

      2 RIVER REACHES

                 RECHARGE = -3.900000E-03
 
 SOLVING FOR HEAD 

 OUTPUT CONTROL FOR STRESS PERIOD  150   TIME STEP    1
    SAVE HEAD FOR ALL LAYERS

 HEAD WILL BE SAVED ON UNIT   51 AT END OF TIME STEP    1, STRESS PERIOD  150
1
  VOLUMETRIC BUDGET FOR ENTIRE MODEL AT END OF TIME STEP    1, STRESS PERIOD 150
  ------------------------------------------------------------------------------

     CUMULATIVE VOLUMES      L**3       RATES FOR THIS TIME STEP      L**3/T
     ------------------                 ------------------------

           IN:                                      IN:
           ---                                      ---
             STORAGE =        3143.1304               STORAGE =          40.5597
       CONSTANT HEAD =           0.0000         CONSTANT HEAD =           0.0000
       RIVER LEAKAGE =         393.9256         RIVER LEAKAGE =           1.2149
            RECHARGE =        2277.0000              RECHARGE =           0.0000

            TOTAL IN =        5814.0557              TOTAL IN =          41.7746

          OUT:                                     OUT:
          ----                                     ----
             STORAGE =        2145.0251               STORAGE =           0.0000
       CONSTANT HEAD =         463.0318         CONSTANT HEAD =           2.7746
       RIVER LEAKAGE =         181.9998         RIVER LEAKAGE =           0.0000
            RECHARGE =        3024.0000              RECHARGE =          39.0000

           TOTAL OUT =        5814.0566             TOTAL OUT =          41.7746

            IN - OUT =      -9.7656E-04              IN - OUT =       3.0518E-05

 PERCENT DISCREPANCY =          -0.00     PERCENT DISCREPANCY =           0.00






         TIME SUMMARY AT END OF TIME STEP    1 IN STRESS PERIOD  150
                    SECONDS     MINUTES      HOURS       DAYS        YEARS
                    -----------------------------------------------------------
   TIME STEP LENGTH  86400.      1440.0      24.000      1.0000     2.73785E-03
 STRESS PERIOD TIME  86400.      1440.0      24.000      1.0000     2.73785E-03
         TOTAL TIME 1.29600E+07 2.16000E+05  3600.0      150.00     0.41068    
1
1
                            STRESS PERIOD NO.  151, LENGTH =   1.000000    
                            -----------------------------------------------

                              NUMBER OF TIME STEPS =     1

                               MULTIPLIER FOR DELT =     1.000

                            INITIAL TIME STEP SIZE =   1.000000    

 REUSING NON-PARAMETER RIVER REACHES FROM LAST STRESS PERIOD

      2 RIVER REACHES

                 RECHARGE = -2.975000E-03
 
 SOLVING FOR HEAD 

 OUTPUT CONTROL FOR STRESS PERIOD  151   TIME STEP    1
    SAVE HEAD FOR ALL LAYERS

 HEAD WILL BE SAVED ON UNIT   51 AT END OF TIME STEP    1, STRESS PERIOD  151
1
  VOLUMETRIC BUDGET FOR ENTIRE MODEL AT END OF TIME STEP    1, STRESS PERIOD 151
  ------------------------------------------------------------------------------

     CUMULATIVE VOLUMES      L**3       RATES FOR THIS TIME STEP      L**3/T
     ------------------                 ------------------------

           IN:                                      IN:
           ---                                      ---
             STORAGE =        3173.4229               STORAGE =          30.2924
       CONSTANT HEAD =           0.0000         CONSTANT HEAD =           0.0000
       RIVER LEAKAGE =         396.1551         RIVER LEAKAGE =           2.2295
            RECHARGE =        2277.0000              RECHARGE =           0.0000

            TOTAL IN =        5846.5781              TOTAL IN =          32.5219

          OUT:                                     OUT:
          ----                                     ----
             STORAGE =        2145.0251               STORAGE =           0.0000
       CONSTANT HEAD =         465.8037         CONSTANT HEAD =           2.7719
       RIVER LEAKAGE =         181.9998         RIVER LEAKAGE =           0.0000
            RECHARGE =        3053.7500              RECHARGE =          29.7500

           TOTAL OUT =        5846.5786             TOTAL OUT =          32.5219

            IN - OUT =      -4.8828E-04              IN - OUT =       1.5259E-05

 PERCENT DISCREPANCY =          -0.00     PERCENT DISCREPANCY =           0.00






         TIME SUMMARY AT END OF TIME STEP    1 IN STRESS PERIOD  151
                    SECONDS     MINUTES      HOURS       DAYS        YEARS
                    -----------------------------------------------------------
   TIME STEP LENGTH  86400.      1440.0      24.000      1.0000     2.73785E-03
 STRESS PERIOD TIME  86400.      1440.0      24.000      1.0000     2.73785E-03
         TOTAL TIME 1.30464E+07 2.17440E+05  3624.0      151.00     0.41342    
1
1
                            STRESS PERIOD NO.  152, LENGTH =   1.000000    
                            -----------------------------------------------

                              NUMBER OF TIME STEPS =     1

                               MULTIPLIER FOR DELT =     1.000

                            INITIAL TIME STEP SIZE =   1.000000    

 REUSING NON-PARAMETER RIVER REACHES FROM LAST STRESS PERIOD

      2 RIVER REACHES

                 RECHARGE = -9.000000E-04
 
 SOLVING FOR HEAD 

 OUTPUT CONTROL FOR STRESS PERIOD  152   TIME STEP    1
    SAVE HEAD FOR ALL LAYERS

 HEAD WILL BE SAVED ON UNIT   51 AT END OF TIME STEP    1, STRESS PERIOD  152
1
  VOLUMETRIC BUDGET FOR ENTIRE MODEL AT END OF TIME STEP    1, STRESS PERIOD 152
  ------------------------------------------------------------------------------

     CUMULATIVE VOLUMES      L**3       RATES FOR THIS TIME STEP      L**3/T
     ------------------                 ------------------------

           IN:                                      IN:
           ---                                      ---
             STORAGE =        3182.9246               STORAGE =           9.5017
       CONSTANT HEAD =           0.0000         CONSTANT HEAD =           0.0000
       RIVER LEAKAGE =         398.4228         RIVER LEAKAGE =           2.2677
            RECHARGE =        2277.0000              RECHARGE =           0.0000

            TOTAL IN =        5858.3477              TOTAL IN =          11.7694

          OUT:                                     OUT:
          ----                                     ----
             STORAGE =        2145.0251               STORAGE =           0.0000
       CONSTANT HEAD =         468.5732         CONSTANT HEAD =           2.7695
       RIVER LEAKAGE =         181.9998         RIVER LEAKAGE =           0.0000
            RECHARGE =        3062.7500              RECHARGE =           9.0000

           TOTAL OUT =        5858.3481             TOTAL OUT =          11.7695

            IN - OUT =      -4.8828E-04              IN - OUT =      -6.5804E-05

 PERCENT DISCREPANCY =          -0.00     PERCENT DISCREPANCY =          -0.00






         TIME SUMMARY AT END OF TIME STEP    1 IN STRESS PERIOD  152
                    SECONDS     MINUTES      HOURS       DAYS        YEARS
                    -----------------------------------------------------------
   TIME STEP LENGTH  86400.      1440.0      24.000      1.0000     2.73785E-03
 STRESS PERIOD TIME  86400.      1440.0      24.000      1.0000     2.73785E-03
         TOTAL TIME 1.31328E+07 2.18880E+05  3648.0      152.00     0.41615    
1
1
                            STRESS PERIOD NO.  153, LENGTH =   1.000000    
                            -----------------------------------------------

                              NUMBER OF TIME STEPS =     1

                               MULTIPLIER FOR DELT =     1.000

                            INITIAL TIME STEP SIZE =   1.000000    

 REUSING NON-PARAMETER RIVER REACHES FROM LAST STRESS PERIOD

      2 RIVER REACHES

                 RECHARGE =  6.200000E-03
 
 SOLVING FOR HEAD 

 OUTPUT CONTROL FOR STRESS PERIOD  153   TIME STEP    1
    SAVE HEAD FOR ALL LAYERS

 HEAD WILL BE SAVED ON UNIT   51 AT END OF TIME STEP    1, STRESS PERIOD  153
1
  VOLUMETRIC BUDGET FOR ENTIRE MODEL AT END OF TIME STEP    1, STRESS PERIOD 153
  ------------------------------------------------------------------------------

     CUMULATIVE VOLUMES      L**3       RATES FOR THIS TIME STEP      L**3/T
     ------------------                 ------------------------

           IN:                                      IN:
           ---                                      ---
             STORAGE =        3183.0437               STORAGE =           0.1193
       CONSTANT HEAD =           0.0000         CONSTANT HEAD =           0.0000
       RIVER LEAKAGE =         398.4228         RIVER LEAKAGE =           0.0000
            RECHARGE =        2339.0000              RECHARGE =          62.0000

            TOTAL IN =        5920.4668              TOTAL IN =          62.1193

          OUT:                                     OUT:
          ----                                     ----
             STORAGE =        2204.3396               STORAGE =          59.3145
       CONSTANT HEAD =         471.3427         CONSTANT HEAD =           2.7695
       RIVER LEAKAGE =         182.0350         RIVER LEAKAGE =       3.5208E-02
            RECHARGE =        3062.7500              RECHARGE =           0.0000

           TOTAL OUT =        5920.4678             TOTAL OUT =          62.1192

            IN - OUT =      -9.7656E-04              IN - OUT =       5.7220E-05

 PERCENT DISCREPANCY =          -0.00     PERCENT DISCREPANCY =           0.00






         TIME SUMMARY AT END OF TIME STEP    1 IN STRESS PERIOD  153
                    SECONDS     MINUTES      HOURS       DAYS        YEARS
                    -----------------------------------------------------------
   TIME STEP LENGTH  86400.      1440.0      24.000      1.0000     2.73785E-03
 STRESS PERIOD TIME  86400.      1440.0      24.000      1.0000     2.73785E-03
         TOTAL TIME 1.32192E+07 2.20320E+05  3672.0      153.00     0.41889    
1
1
                            STRESS PERIOD NO.  154, LENGTH =   1.000000    
                            -----------------------------------------------

                              NUMBER OF TIME STEPS =     1

                               MULTIPLIER FOR DELT =     1.000

                            INITIAL TIME STEP SIZE =   1.000000    

 REUSING NON-PARAMETER RIVER REACHES FROM LAST STRESS PERIOD

      2 RIVER REACHES

                 RECHARGE = -1.700000E-03
 
 SOLVING FOR HEAD 

 OUTPUT CONTROL FOR STRESS PERIOD  154   TIME STEP    1
    SAVE HEAD FOR ALL LAYERS

 HEAD WILL BE SAVED ON UNIT   51 AT END OF TIME STEP    1, STRESS PERIOD  154
1
  VOLUMETRIC BUDGET FOR ENTIRE MODEL AT END OF TIME STEP    1, STRESS PERIOD 154
  ------------------------------------------------------------------------------

     CUMULATIVE VOLUMES      L**3       RATES FOR THIS TIME STEP      L**3/T
     ------------------                 ------------------------

           IN:                                      IN:
           ---                                      ---
             STORAGE =        3201.4595               STORAGE =          18.4158
       CONSTANT HEAD =           0.0000         CONSTANT HEAD =           0.0000
       RIVER LEAKAGE =         399.7749         RIVER LEAKAGE =           1.3521
            RECHARGE =        2339.0000              RECHARGE =           0.0000

            TOTAL IN =        5940.2344              TOTAL IN =          19.7679

          OUT:                                     OUT:
          ----                                     ----
             STORAGE =        2204.3396               STORAGE =           0.0000
       CONSTANT HEAD =         474.1105         CONSTANT HEAD =           2.7678
       RIVER LEAKAGE =         182.0350         RIVER LEAKAGE =           0.0000
            RECHARGE =        3079.7500              RECHARGE =          17.0000

           TOTAL OUT =        5940.2354             TOTAL OUT =          19.7678

            IN - OUT =      -9.7656E-04              IN - OUT =       9.5367E-05

 PERCENT DISCREPANCY =          -0.00     PERCENT DISCREPANCY =           0.00






         TIME SUMMARY AT END OF TIME STEP    1 IN STRESS PERIOD  154
                    SECONDS     MINUTES      HOURS       DAYS        YEARS
                    -----------------------------------------------------------
   TIME STEP LENGTH  86400.      1440.0      24.000      1.0000     2.73785E-03
 STRESS PERIOD TIME  86400.      1440.0      24.000      1.0000     2.73785E-03
         TOTAL TIME 1.33056E+07 2.21760E+05  3696.0      154.00     0.42163    
1
1
                            STRESS PERIOD NO.  155, LENGTH =   1.000000    
                            -----------------------------------------------

                              NUMBER OF TIME STEPS =     1

                               MULTIPLIER FOR DELT =     1.000

                            INITIAL TIME STEP SIZE =   1.000000    

 REUSING NON-PARAMETER RIVER REACHES FROM LAST STRESS PERIOD

      2 RIVER REACHES

                 RECHARGE = -3.175000E-03
 
 SOLVING FOR HEAD 

 OUTPUT CONTROL FOR STRESS PERIOD  155   TIME STEP    1
    SAVE HEAD FOR ALL LAYERS

 HEAD WILL BE SAVED ON UNIT   51 AT END OF TIME STEP    1, STRESS PERIOD  155
1
  VOLUMETRIC BUDGET FOR ENTIRE MODEL AT END OF TIME STEP    1, STRESS PERIOD 155
  ------------------------------------------------------------------------------

     CUMULATIVE VOLUMES      L**3       RATES FOR THIS TIME STEP      L**3/T
     ------------------                 ------------------------

           IN:                                      IN:
           ---                                      ---
             STORAGE =        3233.4253               STORAGE =          31.9657
       CONSTANT HEAD =           0.0000         CONSTANT HEAD =           0.0000
       RIVER LEAKAGE =         402.3242         RIVER LEAKAGE =           2.5494
            RECHARGE =        2339.0000              RECHARGE =           0.0000

            TOTAL IN =        5974.7495              TOTAL IN =          34.5151

          OUT:                                     OUT:
          ----                                     ----
             STORAGE =        2204.3396               STORAGE =           0.0000
       CONSTANT HEAD =         476.8755         CONSTANT HEAD =           2.7650
       RIVER LEAKAGE =         182.0350         RIVER LEAKAGE =           0.0000
            RECHARGE =        3111.5000              RECHARGE =          31.7500

           TOTAL OUT =        5974.7500             TOTAL OUT =          34.5150

            IN - OUT =      -4.8828E-04              IN - OUT =       6.4850E-05

 PERCENT DISCREPANCY =          -0.00     PERCENT DISCREPANCY =           0.00






         TIME SUMMARY AT END OF TIME STEP    1 IN STRESS PERIOD  155
                    SECONDS     MINUTES      HOURS       DAYS        YEARS
                    -----------------------------------------------------------
   TIME STEP LENGTH  86400.      1440.0      24.000      1.0000     2.73785E-03
 STRESS PERIOD TIME  86400.      1440.0      24.000      1.0000     2.73785E-03
         TOTAL TIME 1.33920E+07 2.23200E+05  3720.0      155.00     0.42437    
1
1
                            STRESS PERIOD NO.  156, LENGTH =   1.000000    
                            -----------------------------------------------

                              NUMBER OF TIME STEPS =     1

                               MULTIPLIER FOR DELT =     1.000

                            INITIAL TIME STEP SIZE =   1.000000    

 REUSING NON-PARAMETER RIVER REACHES FROM LAST STRESS PERIOD

      2 RIVER REACHES

                 RECHARGE = -2.500000E-03
 
 SOLVING FOR HEAD 

 OUTPUT CONTROL FOR STRESS PERIOD  156   TIME STEP    1
    SAVE HEAD FOR ALL LAYERS

 HEAD WILL BE SAVED ON UNIT   51 AT END OF TIME STEP    1, STRESS PERIOD  156
1
  VOLUMETRIC BUDGET FOR ENTIRE MODEL AT END OF TIME STEP    1, STRESS PERIOD 156
  ------------------------------------------------------------------------------

     CUMULATIVE VOLUMES      L**3       RATES FOR THIS TIME STEP      L**3/T
     ------------------                 ------------------------

           IN:                                      IN:
           ---                                      ---
             STORAGE =        3258.0825               STORAGE =          24.6571
       CONSTANT HEAD =           0.0000         CONSTANT HEAD =           0.0000
       RIVER LEAKAGE =         405.4292         RIVER LEAKAGE =           3.1050
            RECHARGE =        2339.0000              RECHARGE =           0.0000

            TOTAL IN =        6002.5117              TOTAL IN =          27.7621

          OUT:                                     OUT:
          ----                                     ----
             STORAGE =        2204.3396               STORAGE =           0.0000
       CONSTANT HEAD =         479.6376         CONSTANT HEAD =           2.7620
       RIVER LEAKAGE =         182.0350         RIVER LEAKAGE =           0.0000
            RECHARGE =        3136.5000              RECHARGE =          25.0000

           TOTAL OUT =        6002.5122             TOTAL OUT =          27.7620

            IN - OUT =      -4.8828E-04              IN - OUT =       8.5831E-05

 PERCENT DISCREPANCY =          -0.00     PERCENT DISCREPANCY =           0.00






         TIME SUMMARY AT END OF TIME STEP    1 IN STRESS PERIOD  156
                    SECONDS     MINUTES      HOURS       DAYS        YEARS
                    -----------------------------------------------------------
   TIME STEP LENGTH  86400.      1440.0      24.000      1.0000     2.73785E-03
 STRESS PERIOD TIME  86400.      1440.0      24.000      1.0000     2.73785E-03
         TOTAL TIME 1.34784E+07 2.24640E+05  3744.0      156.00     0.42710    
1
1
                            STRESS PERIOD NO.  157, LENGTH =   1.000000    
                            -----------------------------------------------

                              NUMBER OF TIME STEPS =     1

                               MULTIPLIER FOR DELT =     1.000

                            INITIAL TIME STEP SIZE =   1.000000    

 REUSING NON-PARAMETER RIVER REACHES FROM LAST STRESS PERIOD

      2 RIVER REACHES

                 RECHARGE =  8.000000E-04
 
 SOLVING FOR HEAD 

 OUTPUT CONTROL FOR STRESS PERIOD  157   TIME STEP    1
    SAVE HEAD FOR ALL LAYERS

 HEAD WILL BE SAVED ON UNIT   51 AT END OF TIME STEP    1, STRESS PERIOD  157
1
  VOLUMETRIC BUDGET FOR ENTIRE MODEL AT END OF TIME STEP    1, STRESS PERIOD 157
  ------------------------------------------------------------------------------

     CUMULATIVE VOLUMES      L**3       RATES FOR THIS TIME STEP      L**3/T
     ------------------                 ------------------------

           IN:                                      IN:
           ---                                      ---
             STORAGE =        3258.2363               STORAGE =           0.1538
       CONSTANT HEAD =           0.0000         CONSTANT HEAD =           0.0000
       RIVER LEAKAGE =         407.8603         RIVER LEAKAGE =           2.4311
            RECHARGE =        2347.0000              RECHARGE =           8.0000

            TOTAL IN =        6013.0967              TOTAL IN =          10.5849

          OUT:                                     OUT:
          ----                                     ----
             STORAGE =        2212.1646               STORAGE =           7.8249
       CONSTANT HEAD =         482.3974         CONSTANT HEAD =           2.7599
       RIVER LEAKAGE =         182.0350         RIVER LEAKAGE =           0.0000
            RECHARGE =        3136.5000              RECHARGE =           0.0000

           TOTAL OUT =        6013.0972             TOTAL OUT =          10.5847

            IN - OUT =      -4.8828E-04              IN - OUT =       1.2112E-04

 PERCENT DISCREPANCY =          -0.00     PERCENT DISCREPANCY =           0.00






         TIME SUMMARY AT END OF TIME STEP    1 IN STRESS PERIOD  157
                    SECONDS     MINUTES      HOURS       DAYS        YEARS
                    -----------------------------------------------------------
   TIME STEP LENGTH  86400.      1440.0      24.000      1.0000     2.73785E-03
 STRESS PERIOD TIME  86400.      1440.0      24.000      1.0000     2.73785E-03
         TOTAL TIME 1.35648E+07 2.26080E+05  3768.0      157.00     0.42984    
1
1
                            STRESS PERIOD NO.  158, LENGTH =   1.000000    
                            -----------------------------------------------

                              NUMBER OF TIME STEPS =     1

                               MULTIPLIER FOR DELT =     1.000

                            INITIAL TIME STEP SIZE =   1.000000    

 REUSING NON-PARAMETER RIVER REACHES FROM LAST STRESS PERIOD

      2 RIVER REACHES

                 RECHARGE = -1.200000E-03
 
 SOLVING FOR HEAD 

 OUTPUT CONTROL FOR STRESS PERIOD  158   TIME STEP    1
    SAVE HEAD FOR ALL LAYERS

 HEAD WILL BE SAVED ON UNIT   51 AT END OF TIME STEP    1, STRESS PERIOD  158
1
  VOLUMETRIC BUDGET FOR ENTIRE MODEL AT END OF TIME STEP    1, STRESS PERIOD 158
  ------------------------------------------------------------------------------

     CUMULATIVE VOLUMES      L**3       RATES FOR THIS TIME STEP      L**3/T
     ------------------                 ------------------------

           IN:                                      IN:
           ---                                      ---
             STORAGE =        3270.1736               STORAGE =          11.9372
       CONSTANT HEAD =           0.0000         CONSTANT HEAD =           0.0000
       RIVER LEAKAGE =         410.6804         RIVER LEAKAGE =           2.8201
            RECHARGE =        2347.0000              RECHARGE =           0.0000

            TOTAL IN =        6027.8540              TOTAL IN =          14.7573

          OUT:                                     OUT:
          ----                                     ----
             STORAGE =        2212.1646               STORAGE =           0.0000
       CONSTANT HEAD =         485.1547         CONSTANT HEAD =           2.7573
       RIVER LEAKAGE =         182.0350         RIVER LEAKAGE =           0.0000
            RECHARGE =        3148.5000              RECHARGE =          12.0000

           TOTAL OUT =        6027.8545             TOTAL OUT =          14.7573

            IN - OUT =      -4.8828E-04              IN - OUT =       4.9591E-05

 PERCENT DISCREPANCY =          -0.00     PERCENT DISCREPANCY =           0.00






         TIME SUMMARY AT END OF TIME STEP    1 IN STRESS PERIOD  158
                    SECONDS     MINUTES      HOURS       DAYS        YEARS
                    -----------------------------------------------------------
   TIME STEP LENGTH  86400.      1440.0      24.000      1.0000     2.73785E-03
 STRESS PERIOD TIME  86400.      1440.0      24.000      1.0000     2.73785E-03
         TOTAL TIME 1.36512E+07 2.27520E+05  3792.0      158.00     0.43258    
1
1
                            STRESS PERIOD NO.  159, LENGTH =   1.000000    
                            -----------------------------------------------

                              NUMBER OF TIME STEPS =     1

                               MULTIPLIER FOR DELT =     1.000

                            INITIAL TIME STEP SIZE =   1.000000    

 REUSING NON-PARAMETER RIVER REACHES FROM LAST STRESS PERIOD

      2 RIVER REACHES

                 RECHARGE = -2.800000E-03
 
 SOLVING FOR HEAD 

 OUTPUT CONTROL FOR STRESS PERIOD  159   TIME STEP    1
    SAVE HEAD FOR ALL LAYERS

 HEAD WILL BE SAVED ON UNIT   51 AT END OF TIME STEP    1, STRESS PERIOD  159
1
  VOLUMETRIC BUDGET FOR ENTIRE MODEL AT END OF TIME STEP    1, STRESS PERIOD 159
  ------------------------------------------------------------------------------

     CUMULATIVE VOLUMES      L**3       RATES FOR THIS TIME STEP      L**3/T
     ------------------                 ------------------------

           IN:                                      IN:
           ---                                      ---
             STORAGE =        3297.3123               STORAGE =          27.1386
       CONSTANT HEAD =           0.0000         CONSTANT HEAD =           0.0000
       RIVER LEAKAGE =         414.2958         RIVER LEAKAGE =           3.6154
            RECHARGE =        2347.0000              RECHARGE =           0.0000

            TOTAL IN =        6058.6084              TOTAL IN =          30.7540

          OUT:                                     OUT:
          ----                                     ----
             STORAGE =        2212.1646               STORAGE =           0.0000
       CONSTANT HEAD =         487.9088         CONSTANT HEAD =           2.7540
       RIVER LEAKAGE =         182.0350         RIVER LEAKAGE =           0.0000
            RECHARGE =        3176.5000              RECHARGE =          28.0000

           TOTAL OUT =        6058.6084             TOTAL OUT =          30.7540

            IN - OUT =           0.0000              IN - OUT =       2.4796E-05

 PERCENT DISCREPANCY =           0.00     PERCENT DISCREPANCY =           0.00






         TIME SUMMARY AT END OF TIME STEP    1 IN STRESS PERIOD  159
                    SECONDS     MINUTES      HOURS       DAYS        YEARS
                    -----------------------------------------------------------
   TIME STEP LENGTH  86400.      1440.0      24.000      1.0000     2.73785E-03
 STRESS PERIOD TIME  86400.      1440.0      24.000      1.0000     2.73785E-03
         TOTAL TIME 1.37376E+07 2.28960E+05  3816.0      159.00     0.43532    
1
1
                            STRESS PERIOD NO.  160, LENGTH =   1.000000    
                            -----------------------------------------------

                              NUMBER OF TIME STEPS =     1

                               MULTIPLIER FOR DELT =     1.000

                            INITIAL TIME STEP SIZE =   1.000000    

 REUSING NON-PARAMETER RIVER REACHES FROM LAST STRESS PERIOD

      2 RIVER REACHES

                 RECHARGE = -5.000000E-04
 
 SOLVING FOR HEAD 

 OUTPUT CONTROL FOR STRESS PERIOD  160   TIME STEP    1
    SAVE HEAD FOR ALL LAYERS

 HEAD WILL BE SAVED ON UNIT   51 AT END OF TIME STEP    1, STRESS PERIOD  160
1
  VOLUMETRIC BUDGET FOR ENTIRE MODEL AT END OF TIME STEP    1, STRESS PERIOD 160
  ------------------------------------------------------------------------------

     CUMULATIVE VOLUMES      L**3       RATES FOR THIS TIME STEP      L**3/T
     ------------------                 ------------------------

           IN:                                      IN:
           ---                                      ---
             STORAGE =        3301.8909               STORAGE =           4.5786
       CONSTANT HEAD =           0.0000         CONSTANT HEAD =           0.0000
       RIVER LEAKAGE =         417.6521         RIVER LEAKAGE =           3.3563
            RECHARGE =        2347.0000              RECHARGE =           0.0000

            TOTAL IN =        6066.5430              TOTAL IN =           7.9349

          OUT:                                     OUT:
          ----                                     ----
             STORAGE =        2212.3481               STORAGE =           0.1835
       CONSTANT HEAD =         490.6600         CONSTANT HEAD =           2.7512
       RIVER LEAKAGE =         182.0350         RIVER LEAKAGE =           0.0000
            RECHARGE =        3181.5000              RECHARGE =           5.0000

           TOTAL OUT =        6066.5430             TOTAL OUT =           7.9347

            IN - OUT =           0.0000              IN - OUT =       1.4734E-04

 PERCENT DISCREPANCY =           0.00     PERCENT DISCREPANCY =           0.00






         TIME SUMMARY AT END OF TIME STEP    1 IN STRESS PERIOD  160
                    SECONDS     MINUTES      HOURS       DAYS        YEARS
                    -----------------------------------------------------------
   TIME STEP LENGTH  86400.      1440.0      24.000      1.0000     2.73785E-03
 STRESS PERIOD TIME  86400.      1440.0      24.000      1.0000     2.73785E-03
         TOTAL TIME 1.38240E+07 2.30400E+05  3840.0      160.00     0.43806    
1
1
                            STRESS PERIOD NO.  161, LENGTH =   1.000000    
                            -----------------------------------------------

                              NUMBER OF TIME STEPS =     1

                               MULTIPLIER FOR DELT =     1.000

                            INITIAL TIME STEP SIZE =   1.000000    

 REUSING NON-PARAMETER RIVER REACHES FROM LAST STRESS PERIOD

      2 RIVER REACHES

                 RECHARGE = -3.100000E-03
 
 SOLVING FOR HEAD 

 OUTPUT CONTROL FOR STRESS PERIOD  161   TIME STEP    1
    SAVE HEAD FOR ALL LAYERS

 HEAD WILL BE SAVED ON UNIT   51 AT END OF TIME STEP    1, STRESS PERIOD  161
1
  VOLUMETRIC BUDGET FOR ENTIRE MODEL AT END OF TIME STEP    1, STRESS PERIOD 161
  ------------------------------------------------------------------------------

     CUMULATIVE VOLUMES      L**3       RATES FOR THIS TIME STEP      L**3/T
     ------------------                 ------------------------

           IN:                                      IN:
           ---                                      ---
             STORAGE =        3331.4404               STORAGE =          29.5497
       CONSTANT HEAD =           0.0000         CONSTANT HEAD =           0.0000
       RIVER LEAKAGE =         421.8500         RIVER LEAKAGE =           4.1980
            RECHARGE =        2347.0000              RECHARGE =           0.0000

            TOTAL IN =        6100.2905              TOTAL IN =          33.7476

          OUT:                                     OUT:
          ----                                     ----
             STORAGE =        2212.3481               STORAGE =           0.0000
       CONSTANT HEAD =         493.4076         CONSTANT HEAD =           2.7476
       RIVER LEAKAGE =         182.0350         RIVER LEAKAGE =           0.0000
            RECHARGE =        3212.5000              RECHARGE =          31.0000

           TOTAL OUT =        6100.2910             TOTAL OUT =          33.7476

            IN - OUT =      -4.8828E-04              IN - OUT =       3.0518E-05

 PERCENT DISCREPANCY =          -0.00     PERCENT DISCREPANCY =           0.00






         TIME SUMMARY AT END OF TIME STEP    1 IN STRESS PERIOD  161
                    SECONDS     MINUTES      HOURS       DAYS        YEARS
                    -----------------------------------------------------------
   TIME STEP LENGTH  86400.      1440.0      24.000      1.0000     2.73785E-03
 STRESS PERIOD TIME  86400.      1440.0      24.000      1.0000     2.73785E-03
         TOTAL TIME 1.39104E+07 2.31840E+05  3864.0      161.00     0.44079    
1
1
                            STRESS PERIOD NO.  162, LENGTH =   1.000000    
                            -----------------------------------------------

                              NUMBER OF TIME STEPS =     1

                               MULTIPLIER FOR DELT =     1.000

                            INITIAL TIME STEP SIZE =   1.000000    

 REUSING NON-PARAMETER RIVER REACHES FROM LAST STRESS PERIOD

      2 RIVER REACHES

                 RECHARGE = -4.000000E-03
 
 SOLVING FOR HEAD 

 OUTPUT CONTROL FOR STRESS PERIOD  162   TIME STEP    1
    SAVE HEAD FOR ALL LAYERS

 HEAD WILL BE SAVED ON UNIT   51 AT END OF TIME STEP    1, STRESS PERIOD  162
1
  VOLUMETRIC BUDGET FOR ENTIRE MODEL AT END OF TIME STEP    1, STRESS PERIOD 162
  ------------------------------------------------------------------------------

     CUMULATIVE VOLUMES      L**3       RATES FOR THIS TIME STEP      L**3/T
     ------------------                 ------------------------

           IN:                                      IN:
           ---                                      ---
             STORAGE =        3369.1211               STORAGE =          37.6808
       CONSTANT HEAD =           0.0000         CONSTANT HEAD =           0.0000
       RIVER LEAKAGE =         426.9125         RIVER LEAKAGE =           5.0625
            RECHARGE =        2347.0000              RECHARGE =           0.0000

            TOTAL IN =        6143.0337              TOTAL IN =          42.7433

          OUT:                                     OUT:
          ----                                     ----
             STORAGE =        2212.3481               STORAGE =           0.0000
       CONSTANT HEAD =         496.1508         CONSTANT HEAD =           2.7433
       RIVER LEAKAGE =         182.0350         RIVER LEAKAGE =           0.0000
            RECHARGE =        3252.5000              RECHARGE =          40.0000

           TOTAL OUT =        6143.0342             TOTAL OUT =          42.7433

            IN - OUT =      -4.8828E-04              IN - OUT =      -1.1444E-05

 PERCENT DISCREPANCY =          -0.00     PERCENT DISCREPANCY =          -0.00






         TIME SUMMARY AT END OF TIME STEP    1 IN STRESS PERIOD  162
                    SECONDS     MINUTES      HOURS       DAYS        YEARS
                    -----------------------------------------------------------
   TIME STEP LENGTH  86400.      1440.0      24.000      1.0000     2.73785E-03
 STRESS PERIOD TIME  86400.      1440.0      24.000      1.0000     2.73785E-03
         TOTAL TIME 1.39968E+07 2.33280E+05  3888.0      162.00     0.44353    
1
1
                            STRESS PERIOD NO.  163, LENGTH =   1.000000    
                            -----------------------------------------------

                              NUMBER OF TIME STEPS =     1

                               MULTIPLIER FOR DELT =     1.000

                            INITIAL TIME STEP SIZE =   1.000000    

 REUSING NON-PARAMETER RIVER REACHES FROM LAST STRESS PERIOD

      2 RIVER REACHES

                 RECHARGE =  5.600000E-03
 
 SOLVING FOR HEAD 

 OUTPUT CONTROL FOR STRESS PERIOD  163   TIME STEP    1
    SAVE HEAD FOR ALL LAYERS

 HEAD WILL BE SAVED ON UNIT   51 AT END OF TIME STEP    1, STRESS PERIOD  163
1
  VOLUMETRIC BUDGET FOR ENTIRE MODEL AT END OF TIME STEP    1, STRESS PERIOD 163
  ------------------------------------------------------------------------------

     CUMULATIVE VOLUMES      L**3       RATES FOR THIS TIME STEP      L**3/T
     ------------------                 ------------------------

           IN:                                      IN:
           ---                                      ---
             STORAGE =        3369.2922               STORAGE =           0.1711
       CONSTANT HEAD =           0.0000         CONSTANT HEAD =           0.0000
       RIVER LEAKAGE =         429.2893         RIVER LEAKAGE =           2.3768
            RECHARGE =        2403.0000              RECHARGE =          56.0000

            TOTAL IN =        6201.5815              TOTAL IN =          58.5479

          OUT:                                     OUT:
          ----                                     ----
             STORAGE =        2268.1543               STORAGE =          55.8060
       CONSTANT HEAD =         498.8928         CONSTANT HEAD =           2.7419
       RIVER LEAKAGE =         182.0350         RIVER LEAKAGE =           0.0000
            RECHARGE =        3252.5000              RECHARGE =           0.0000

           TOTAL OUT =        6201.5820             TOTAL OUT =          58.5480

            IN - OUT =      -4.8828E-04              IN - OUT =      -8.7738E-05

 PERCENT DISCREPANCY =          -0.00     PERCENT DISCREPANCY =          -0.00






         TIME SUMMARY AT END OF TIME STEP    1 IN STRESS PERIOD  163
                    SECONDS     MINUTES      HOURS       DAYS        YEARS
                    -----------------------------------------------------------
   TIME STEP LENGTH  86400.      1440.0      24.000      1.0000     2.73785E-03
 STRESS PERIOD TIME  86400.      1440.0      24.000      1.0000     2.73785E-03
         TOTAL TIME 1.40832E+07 2.34720E+05  3912.0      163.00     0.44627    
1
1
                            STRESS PERIOD NO.  164, LENGTH =   1.000000    
                            -----------------------------------------------

                              NUMBER OF TIME STEPS =     1

                               MULTIPLIER FOR DELT =     1.000

                            INITIAL TIME STEP SIZE =   1.000000    

 REUSING NON-PARAMETER RIVER REACHES FROM LAST STRESS PERIOD

      2 RIVER REACHES

                 RECHARGE = -2.975000E-03
 
 SOLVING FOR HEAD 

 OUTPUT CONTROL FOR STRESS PERIOD  164   TIME STEP    1
    SAVE HEAD FOR ALL LAYERS

 HEAD WILL BE SAVED ON UNIT   51 AT END OF TIME STEP    1, STRESS PERIOD  164
1
  VOLUMETRIC BUDGET FOR ENTIRE MODEL AT END OF TIME STEP    1, STRESS PERIOD 164
  ------------------------------------------------------------------------------

     CUMULATIVE VOLUMES      L**3       RATES FOR THIS TIME STEP      L**3/T
     ------------------                 ------------------------

           IN:                                      IN:
           ---                                      ---
             STORAGE =        3397.9580               STORAGE =          28.6659
       CONSTANT HEAD =           0.0000         CONSTANT HEAD =           0.0000
       RIVER LEAKAGE =         433.1122         RIVER LEAKAGE =           3.8229
            RECHARGE =        2403.0000              RECHARGE =           0.0000

            TOTAL IN =        6234.0703              TOTAL IN =          32.4887

          OUT:                                     OUT:
          ----                                     ----
             STORAGE =        2268.1543               STORAGE =           0.0000
       CONSTANT HEAD =         501.6315         CONSTANT HEAD =           2.7387
       RIVER LEAKAGE =         182.0350         RIVER LEAKAGE =           0.0000
            RECHARGE =        3282.2500              RECHARGE =          29.7500

           TOTAL OUT =        6234.0713             TOTAL OUT =          32.4887

            IN - OUT =      -9.7656E-04              IN - OUT =           0.0000

 PERCENT DISCREPANCY =          -0.00     PERCENT DISCREPANCY =           0.00






         TIME SUMMARY AT END OF TIME STEP    1 IN STRESS PERIOD  164
                    SECONDS     MINUTES      HOURS       DAYS        YEARS
                    -----------------------------------------------------------
   TIME STEP LENGTH  86400.      1440.0      24.000      1.0000     2.73785E-03
 STRESS PERIOD TIME  86400.      1440.0      24.000      1.0000     2.73785E-03
         TOTAL TIME 1.41696E+07 2.36160E+05  3936.0      164.00     0.44901    
1
1
                            STRESS PERIOD NO.  165, LENGTH =   1.000000    
                            -----------------------------------------------

                              NUMBER OF TIME STEPS =     1

                               MULTIPLIER FOR DELT =     1.000

                            INITIAL TIME STEP SIZE =   1.000000    

 REUSING NON-PARAMETER RIVER REACHES FROM LAST STRESS PERIOD

      2 RIVER REACHES

                 RECHARGE =  8.000000E-04
 
 SOLVING FOR HEAD 

 OUTPUT CONTROL FOR STRESS PERIOD  165   TIME STEP    1
    SAVE HEAD FOR ALL LAYERS

 HEAD WILL BE SAVED ON UNIT   51 AT END OF TIME STEP    1, STRESS PERIOD  165
1
  VOLUMETRIC BUDGET FOR ENTIRE MODEL AT END OF TIME STEP    1, STRESS PERIOD 165
  ------------------------------------------------------------------------------

     CUMULATIVE VOLUMES      L**3       RATES FOR THIS TIME STEP      L**3/T
     ------------------                 ------------------------

           IN:                                      IN:
           ---                                      ---
             STORAGE =        3398.1365               STORAGE =           0.1785
       CONSTANT HEAD =           0.0000         CONSTANT HEAD =           0.0000
       RIVER LEAKAGE =         436.3514         RIVER LEAKAGE =           3.2392
            RECHARGE =        2411.0000              RECHARGE =           8.0000

            TOTAL IN =        6245.4878              TOTAL IN =          11.4177

          OUT:                                     OUT:
          ----                                     ----
             STORAGE =        2276.8354               STORAGE =           8.6812
       CONSTANT HEAD =         504.3679         CONSTANT HEAD =           2.7363
       RIVER LEAKAGE =         182.0350         RIVER LEAKAGE =           0.0000
            RECHARGE =        3282.2500              RECHARGE =           0.0000

           TOTAL OUT =        6245.4883             TOTAL OUT =          11.4176

            IN - OUT =      -4.8828E-04              IN - OUT =       1.3447E-04

 PERCENT DISCREPANCY =          -0.00     PERCENT DISCREPANCY =           0.00






         TIME SUMMARY AT END OF TIME STEP    1 IN STRESS PERIOD  165
                    SECONDS     MINUTES      HOURS       DAYS        YEARS
                    -----------------------------------------------------------
   TIME STEP LENGTH  86400.      1440.0      24.000      1.0000     2.73785E-03
 STRESS PERIOD TIME  86400.      1440.0      24.000      1.0000     2.73785E-03
         TOTAL TIME 1.42560E+07 2.37600E+05  3960.0      165.00     0.45175    
1
1
                            STRESS PERIOD NO.  166, LENGTH =   1.000000    
                            -----------------------------------------------

                              NUMBER OF TIME STEPS =     1

                               MULTIPLIER FOR DELT =     1.000

                            INITIAL TIME STEP SIZE =   1.000000    

 REUSING NON-PARAMETER RIVER REACHES FROM LAST STRESS PERIOD

      2 RIVER REACHES

                 RECHARGE = -2.600000E-03
 
 SOLVING FOR HEAD 

 OUTPUT CONTROL FOR STRESS PERIOD  166   TIME STEP    1
    SAVE HEAD FOR ALL LAYERS

 HEAD WILL BE SAVED ON UNIT   51 AT END OF TIME STEP    1, STRESS PERIOD  166
1
  VOLUMETRIC BUDGET FOR ENTIRE MODEL AT END OF TIME STEP    1, STRESS PERIOD 166
  ------------------------------------------------------------------------------

     CUMULATIVE VOLUMES      L**3       RATES FOR THIS TIME STEP      L**3/T
     ------------------                 ------------------------

           IN:                                      IN:
           ---                                      ---
             STORAGE =        3422.7495               STORAGE =          24.6130
       CONSTANT HEAD =           0.0000         CONSTANT HEAD =           0.0000
       RIVER LEAKAGE =         440.4714         RIVER LEAKAGE =           4.1200
            RECHARGE =        2411.0000              RECHARGE =           0.0000

            TOTAL IN =        6274.2207              TOTAL IN =          28.7330

          OUT:                                     OUT:
          ----                                     ----
             STORAGE =        2276.8354               STORAGE =           0.0000
       CONSTANT HEAD =         507.1009         CONSTANT HEAD =           2.7330
       RIVER LEAKAGE =         182.0350         RIVER LEAKAGE =           0.0000
            RECHARGE =        3308.2500              RECHARGE =          26.0000

           TOTAL OUT =        6274.2217             TOTAL OUT =          28.7330

            IN - OUT =      -9.7656E-04              IN - OUT =       3.8147E-06

 PERCENT DISCREPANCY =          -0.00     PERCENT DISCREPANCY =           0.00






         TIME SUMMARY AT END OF TIME STEP    1 IN STRESS PERIOD  166
                    SECONDS     MINUTES      HOURS       DAYS        YEARS
                    -----------------------------------------------------------
   TIME STEP LENGTH  86400.      1440.0      24.000      1.0000     2.73785E-03
 STRESS PERIOD TIME  86400.      1440.0      24.000      1.0000     2.73785E-03
         TOTAL TIME 1.43424E+07 2.39040E+05  3984.0      166.00     0.45448    
1
1
                            STRESS PERIOD NO.  167, LENGTH =   1.000000    
                            -----------------------------------------------

                              NUMBER OF TIME STEPS =     1

                               MULTIPLIER FOR DELT =     1.000

                            INITIAL TIME STEP SIZE =   1.000000    

 REUSING NON-PARAMETER RIVER REACHES FROM LAST STRESS PERIOD

      2 RIVER REACHES

                 RECHARGE =  2.600000E-03
 
 SOLVING FOR HEAD 

 OUTPUT CONTROL FOR STRESS PERIOD  167   TIME STEP    1
    SAVE HEAD FOR ALL LAYERS

 HEAD WILL BE SAVED ON UNIT   51 AT END OF TIME STEP    1, STRESS PERIOD  167
1
  VOLUMETRIC BUDGET FOR ENTIRE MODEL AT END OF TIME STEP    1, STRESS PERIOD 167
  ------------------------------------------------------------------------------

     CUMULATIVE VOLUMES      L**3       RATES FOR THIS TIME STEP      L**3/T
     ------------------                 ------------------------

           IN:                                      IN:
           ---                                      ---
             STORAGE =        3422.9214               STORAGE =           0.1718
       CONSTANT HEAD =           0.0000         CONSTANT HEAD =           0.0000
       RIVER LEAKAGE =         443.3108         RIVER LEAKAGE =           2.8394
            RECHARGE =        2437.0000              RECHARGE =          26.0000

            TOTAL IN =        6303.2324              TOTAL IN =          29.0112

          OUT:                                     OUT:
          ----                                     ----
             STORAGE =        2303.1155               STORAGE =          26.2800
       CONSTANT HEAD =         509.8321         CONSTANT HEAD =           2.7312
       RIVER LEAKAGE =         182.0350         RIVER LEAKAGE =           0.0000
            RECHARGE =        3308.2500              RECHARGE =           0.0000

           TOTAL OUT =        6303.2324             TOTAL OUT =          29.0112

            IN - OUT =           0.0000              IN - OUT =       1.7166E-05

 PERCENT DISCREPANCY =           0.00     PERCENT DISCREPANCY =           0.00






         TIME SUMMARY AT END OF TIME STEP    1 IN STRESS PERIOD  167
                    SECONDS     MINUTES      HOURS       DAYS        YEARS
                    -----------------------------------------------------------
   TIME STEP LENGTH  86400.      1440.0      24.000      1.0000     2.73785E-03
 STRESS PERIOD TIME  86400.      1440.0      24.000      1.0000     2.73785E-03
         TOTAL TIME 1.44288E+07 2.40480E+05  4008.0      167.00     0.45722    
1
1
                            STRESS PERIOD NO.  168, LENGTH =   1.000000    
                            -----------------------------------------------

                              NUMBER OF TIME STEPS =     1

                               MULTIPLIER FOR DELT =     1.000

                            INITIAL TIME STEP SIZE =   1.000000    

 REUSING NON-PARAMETER RIVER REACHES FROM LAST STRESS PERIOD

      2 RIVER REACHES

                 RECHARGE = -3.200000E-03
 
 SOLVING FOR HEAD 

 OUTPUT CONTROL FOR STRESS PERIOD  168   TIME STEP    1
    SAVE HEAD FOR ALL LAYERS

 HEAD WILL BE SAVED ON UNIT   51 AT END OF TIME STEP    1, STRESS PERIOD  168
1
  VOLUMETRIC BUDGET FOR ENTIRE MODEL AT END OF TIME STEP    1, STRESS PERIOD 168
  ------------------------------------------------------------------------------

     CUMULATIVE VOLUMES      L**3       RATES FOR THIS TIME STEP      L**3/T
     ------------------                 ------------------------

           IN:                                      IN:
           ---                                      ---
             STORAGE =        3453.5195               STORAGE =          30.5981
       CONSTANT HEAD =           0.0000         CONSTANT HEAD =           0.0000
       RIVER LEAKAGE =         447.4406         RIVER LEAKAGE =           4.1298
            RECHARGE =        2437.0000              RECHARGE =           0.0000

            TOTAL IN =        6337.9600              TOTAL IN =          34.7279

          OUT:                                     OUT:
          ----                                     ----
             STORAGE =        2303.1155               STORAGE =           0.0000
       CONSTANT HEAD =         512.5599         CONSTANT HEAD =           2.7278
       RIVER LEAKAGE =         182.0350         RIVER LEAKAGE =           0.0000
            RECHARGE =        3340.2500              RECHARGE =          32.0000

           TOTAL OUT =        6337.9604             TOTAL OUT =          34.7278

            IN - OUT =      -4.8828E-04              IN - OUT =       1.0300E-04

 PERCENT DISCREPANCY =          -0.00     PERCENT DISCREPANCY =           0.00






         TIME SUMMARY AT END OF TIME STEP    1 IN STRESS PERIOD  168
                    SECONDS     MINUTES      HOURS       DAYS        YEARS
                    -----------------------------------------------------------
   TIME STEP LENGTH  86400.      1440.0      24.000      1.0000     2.73785E-03
 STRESS PERIOD TIME  86400.      1440.0      24.000      1.0000     2.73785E-03
         TOTAL TIME 1.45152E+07 2.41920E+05  4032.0      168.00     0.45996    
1
1
                            STRESS PERIOD NO.  169, LENGTH =   1.000000    
                            -----------------------------------------------

                              NUMBER OF TIME STEPS =     1

                               MULTIPLIER FOR DELT =     1.000

                            INITIAL TIME STEP SIZE =   1.000000    

 REUSING NON-PARAMETER RIVER REACHES FROM LAST STRESS PERIOD

      2 RIVER REACHES

                 RECHARGE = -3.700000E-03
 
 SOLVING FOR HEAD 

 OUTPUT CONTROL FOR STRESS PERIOD  169   TIME STEP    1
    SAVE HEAD FOR ALL LAYERS

 HEAD WILL BE SAVED ON UNIT   51 AT END OF TIME STEP    1, STRESS PERIOD  169
1
  VOLUMETRIC BUDGET FOR ENTIRE MODEL AT END OF TIME STEP    1, STRESS PERIOD 169
  ------------------------------------------------------------------------------

     CUMULATIVE VOLUMES      L**3       RATES FOR THIS TIME STEP      L**3/T
     ------------------                 ------------------------

           IN:                                      IN:
           ---                                      ---
             STORAGE =        3488.2229               STORAGE =          34.7034
       CONSTANT HEAD =           0.0000         CONSTANT HEAD =           0.0000
       RIVER LEAKAGE =         452.4611         RIVER LEAKAGE =           5.0205
            RECHARGE =        2437.0000              RECHARGE =           0.0000

            TOTAL IN =        6377.6841              TOTAL IN =          39.7239

          OUT:                                     OUT:
          ----                                     ----
             STORAGE =        2303.1155               STORAGE =           0.0000
       CONSTANT HEAD =         515.2838         CONSTANT HEAD =           2.7238
       RIVER LEAKAGE =         182.0350         RIVER LEAKAGE =           0.0000
            RECHARGE =        3377.2500              RECHARGE =          37.0000

           TOTAL OUT =        6377.6846             TOTAL OUT =          39.7239

            IN - OUT =      -4.8828E-04              IN - OUT =       1.5259E-05

 PERCENT DISCREPANCY =          -0.00     PERCENT DISCREPANCY =           0.00






         TIME SUMMARY AT END OF TIME STEP    1 IN STRESS PERIOD  169
                    SECONDS     MINUTES      HOURS       DAYS        YEARS
                    -----------------------------------------------------------
   TIME STEP LENGTH  86400.      1440.0      24.000      1.0000     2.73785E-03
 STRESS PERIOD TIME  86400.      1440.0      24.000      1.0000     2.73785E-03
         TOTAL TIME 1.46016E+07 2.43360E+05  4056.0      169.00     0.46270    
1
1
                            STRESS PERIOD NO.  170, LENGTH =   1.000000    
                            -----------------------------------------------

                              NUMBER OF TIME STEPS =     1

                               MULTIPLIER FOR DELT =     1.000

                            INITIAL TIME STEP SIZE =   1.000000    

 REUSING NON-PARAMETER RIVER REACHES FROM LAST STRESS PERIOD

      2 RIVER REACHES

                 RECHARGE =  2.000000E-04
 
 SOLVING FOR HEAD 

 OUTPUT CONTROL FOR STRESS PERIOD  170   TIME STEP    1
    SAVE HEAD FOR ALL LAYERS

 HEAD WILL BE SAVED ON UNIT   51 AT END OF TIME STEP    1, STRESS PERIOD  170
1
  VOLUMETRIC BUDGET FOR ENTIRE MODEL AT END OF TIME STEP    1, STRESS PERIOD 170
  ------------------------------------------------------------------------------

     CUMULATIVE VOLUMES      L**3       RATES FOR THIS TIME STEP      L**3/T
     ------------------                 ------------------------

           IN:                                      IN:
           ---                                      ---
             STORAGE =        3488.4248               STORAGE =           0.2018
       CONSTANT HEAD =           0.0000         CONSTANT HEAD =           0.0000
       RIVER LEAKAGE =         456.7699         RIVER LEAKAGE =           4.3088
            RECHARGE =        2439.0000              RECHARGE =           2.0000

            TOTAL IN =        6384.1943              TOTAL IN =           6.5106

          OUT:                                     OUT:
          ----                                     ----
             STORAGE =        2306.9053               STORAGE =           3.7898
       CONSTANT HEAD =         518.0046         CONSTANT HEAD =           2.7208
       RIVER LEAKAGE =         182.0350         RIVER LEAKAGE =           0.0000
            RECHARGE =        3377.2500              RECHARGE =           0.0000

           TOTAL OUT =        6384.1953             TOTAL OUT =           6.5106

            IN - OUT =      -9.7656E-04              IN - OUT =      -2.8610E-05

 PERCENT DISCREPANCY =          -0.00     PERCENT DISCREPANCY =          -0.00






         TIME SUMMARY AT END OF TIME STEP    1 IN STRESS PERIOD  170
                    SECONDS     MINUTES      HOURS       DAYS        YEARS
                    -----------------------------------------------------------
   TIME STEP LENGTH  86400.      1440.0      24.000      1.0000     2.73785E-03
 STRESS PERIOD TIME  86400.      1440.0      24.000      1.0000     2.73785E-03
         TOTAL TIME 1.46880E+07 2.44800E+05  4080.0      170.00     0.46543    
1
1
                            STRESS PERIOD NO.  171, LENGTH =   1.000000    
                            -----------------------------------------------

                              NUMBER OF TIME STEPS =     1

                               MULTIPLIER FOR DELT =     1.000

                            INITIAL TIME STEP SIZE =   1.000000    

 REUSING NON-PARAMETER RIVER REACHES FROM LAST STRESS PERIOD

      2 RIVER REACHES

                 RECHARGE = -2.800000E-03
 
 SOLVING FOR HEAD 

 OUTPUT CONTROL FOR STRESS PERIOD  171   TIME STEP    1
    SAVE HEAD FOR ALL LAYERS

 HEAD WILL BE SAVED ON UNIT   51 AT END OF TIME STEP    1, STRESS PERIOD  171
1
  VOLUMETRIC BUDGET FOR ENTIRE MODEL AT END OF TIME STEP    1, STRESS PERIOD 171
  ------------------------------------------------------------------------------

     CUMULATIVE VOLUMES      L**3       RATES FOR THIS TIME STEP      L**3/T
     ------------------                 ------------------------

           IN:                                      IN:
           ---                                      ---
             STORAGE =        3514.1108               STORAGE =          25.6859
       CONSTANT HEAD =           0.0000         CONSTANT HEAD =           0.0000
       RIVER LEAKAGE =         461.8010         RIVER LEAKAGE =           5.0311
            RECHARGE =        2439.0000              RECHARGE =           0.0000

            TOTAL IN =        6414.9121              TOTAL IN =          30.7171

          OUT:                                     OUT:
          ----                                     ----
             STORAGE =        2306.9053               STORAGE =           0.0000
       CONSTANT HEAD =         520.7216         CONSTANT HEAD =           2.7170
       RIVER LEAKAGE =         182.0350         RIVER LEAKAGE =           0.0000
            RECHARGE =        3405.2500              RECHARGE =          28.0000

           TOTAL OUT =        6414.9121             TOTAL OUT =          30.7170

            IN - OUT =           0.0000              IN - OUT =       7.6294E-05

 PERCENT DISCREPANCY =           0.00     PERCENT DISCREPANCY =           0.00






         TIME SUMMARY AT END OF TIME STEP    1 IN STRESS PERIOD  171
                    SECONDS     MINUTES      HOURS       DAYS        YEARS
                    -----------------------------------------------------------
   TIME STEP LENGTH  86400.      1440.0      24.000      1.0000     2.73785E-03
 STRESS PERIOD TIME  86400.      1440.0      24.000      1.0000     2.73785E-03
         TOTAL TIME 1.47744E+07 2.46240E+05  4104.0      171.00     0.46817    
1
1
                            STRESS PERIOD NO.  172, LENGTH =   1.000000    
                            -----------------------------------------------

                              NUMBER OF TIME STEPS =     1

                               MULTIPLIER FOR DELT =     1.000

                            INITIAL TIME STEP SIZE =   1.000000    

 REUSING NON-PARAMETER RIVER REACHES FROM LAST STRESS PERIOD

      2 RIVER REACHES

                 RECHARGE =  1.400000E-03
 
 SOLVING FOR HEAD 

 OUTPUT CONTROL FOR STRESS PERIOD  172   TIME STEP    1
    SAVE HEAD FOR ALL LAYERS

 HEAD WILL BE SAVED ON UNIT   51 AT END OF TIME STEP    1, STRESS PERIOD  172
1
  VOLUMETRIC BUDGET FOR ENTIRE MODEL AT END OF TIME STEP    1, STRESS PERIOD 172
  ------------------------------------------------------------------------------

     CUMULATIVE VOLUMES      L**3       RATES FOR THIS TIME STEP      L**3/T
     ------------------                 ------------------------

           IN:                                      IN:
           ---                                      ---
             STORAGE =        3514.3125               STORAGE =           0.2017
       CONSTANT HEAD =           0.0000         CONSTANT HEAD =           0.0000
       RIVER LEAKAGE =         465.8272         RIVER LEAKAGE =           4.0262
            RECHARGE =        2453.0000              RECHARGE =          14.0000

            TOTAL IN =        6433.1396              TOTAL IN =          18.2279

          OUT:                                     OUT:
          ----                                     ----
             STORAGE =        2322.4187               STORAGE =          15.5135
       CONSTANT HEAD =         523.4359         CONSTANT HEAD =           2.7144
       RIVER LEAKAGE =         182.0350         RIVER LEAKAGE =           0.0000
            RECHARGE =        3405.2500              RECHARGE =           0.0000

           TOTAL OUT =        6433.1396             TOTAL OUT =          18.2279

            IN - OUT =           0.0000              IN - OUT =       1.7166E-05

 PERCENT DISCREPANCY =           0.00     PERCENT DISCREPANCY =           0.00






         TIME SUMMARY AT END OF TIME STEP    1 IN STRESS PERIOD  172
                    SECONDS     MINUTES      HOURS       DAYS        YEARS
                    -----------------------------------------------------------
   TIME STEP LENGTH  86400.      1440.0      24.000      1.0000     2.73785E-03
 STRESS PERIOD TIME  86400.      1440.0      24.000      1.0000     2.73785E-03
         TOTAL TIME 1.48608E+07 2.47680E+05  4128.0      172.00     0.47091    
1
1
                            STRESS PERIOD NO.  173, LENGTH =   1.000000    
                            -----------------------------------------------

                              NUMBER OF TIME STEPS =     1

                               MULTIPLIER FOR DELT =     1.000

                            INITIAL TIME STEP SIZE =   1.000000    

 REUSING NON-PARAMETER RIVER REACHES FROM LAST STRESS PERIOD

      2 RIVER REACHES

                 RECHARGE =  4.700000E-03
 
 SOLVING FOR HEAD 

 OUTPUT CONTROL FOR STRESS PERIOD  173   TIME STEP    1
    SAVE HEAD FOR ALL LAYERS

 HEAD WILL BE SAVED ON UNIT   51 AT END OF TIME STEP    1, STRESS PERIOD  173
1
  VOLUMETRIC BUDGET FOR ENTIRE MODEL AT END OF TIME STEP    1, STRESS PERIOD 173
  ------------------------------------------------------------------------------

     CUMULATIVE VOLUMES      L**3       RATES FOR THIS TIME STEP      L**3/T
     ------------------                 ------------------------

           IN:                                      IN:
           ---                                      ---
             STORAGE =        3514.4819               STORAGE =           0.1693
       CONSTANT HEAD =           0.0000         CONSTANT HEAD =           0.0000
       RIVER LEAKAGE =         468.1656         RIVER LEAKAGE =           2.3384
            RECHARGE =        2500.0000              RECHARGE =          47.0000

            TOTAL IN =        6482.6475              TOTAL IN =          49.5077

          OUT:                                     OUT:
          ----                                     ----
             STORAGE =        2369.2131               STORAGE =          46.7944
       CONSTANT HEAD =         526.1492         CONSTANT HEAD =           2.7133
       RIVER LEAKAGE =         182.0350         RIVER LEAKAGE =           0.0000
            RECHARGE =        3405.2500              RECHARGE =           0.0000

           TOTAL OUT =        6482.6475             TOTAL OUT =          49.5077

            IN - OUT =           0.0000              IN - OUT =       3.8147E-06

 PERCENT DISCREPANCY =           0.00     PERCENT DISCREPANCY =           0.00






         TIME SUMMARY AT END OF TIME STEP    1 IN STRESS PERIOD  173
                    SECONDS     MINUTES      HOURS       DAYS        YEARS
                    -----------------------------------------------------------
   TIME STEP LENGTH  86400.      1440.0      24.000      1.0000     2.73785E-03
 STRESS PERIOD TIME  86400.      1440.0      24.000      1.0000     2.73785E-03
         TOTAL TIME 1.49472E+07 2.49120E+05  4152.0      173.00     0.47365    
1
1
                            STRESS PERIOD NO.  174, LENGTH =   1.000000    
                            -----------------------------------------------

                              NUMBER OF TIME STEPS =     1

                               MULTIPLIER FOR DELT =     1.000

                            INITIAL TIME STEP SIZE =   1.000000    

 REUSING NON-PARAMETER RIVER REACHES FROM LAST STRESS PERIOD

      2 RIVER REACHES

                 RECHARGE =  8.000000E-03
 
 SOLVING FOR HEAD 

 OUTPUT CONTROL FOR STRESS PERIOD  174   TIME STEP    1
    SAVE HEAD FOR ALL LAYERS

 HEAD WILL BE SAVED ON UNIT   51 AT END OF TIME STEP    1, STRESS PERIOD  174
1
  VOLUMETRIC BUDGET FOR ENTIRE MODEL AT END OF TIME STEP    1, STRESS PERIOD 174
  ------------------------------------------------------------------------------

     CUMULATIVE VOLUMES      L**3       RATES FOR THIS TIME STEP      L**3/T
     ------------------                 ------------------------

           IN:                                      IN:
           ---                                      ---
             STORAGE =        3514.6008               STORAGE =           0.1189
       CONSTANT HEAD =           0.0000         CONSTANT HEAD =           0.0000
       RIVER LEAKAGE =         468.2601         RIVER LEAKAGE =       9.4525E-02
            RECHARGE =        2580.0000              RECHARGE =          80.0000

            TOTAL IN =        6562.8608              TOTAL IN =          80.2134

          OUT:                                     OUT:
          ----                                     ----
             STORAGE =        2446.7122               STORAGE =          77.4990
       CONSTANT HEAD =         528.8635         CONSTANT HEAD =           2.7142
       RIVER LEAKAGE =         182.0350         RIVER LEAKAGE =           0.0000
            RECHARGE =        3405.2500              RECHARGE =           0.0000

           TOTAL OUT =        6562.8608             TOTAL OUT =          80.2133

            IN - OUT =           0.0000              IN - OUT =       1.2970E-04

 PERCENT DISCREPANCY =           0.00     PERCENT DISCREPANCY =           0.00






         TIME SUMMARY AT END OF TIME STEP    1 IN STRESS PERIOD  174
                    SECONDS     MINUTES      HOURS       DAYS        YEARS
                    -----------------------------------------------------------
   TIME STEP LENGTH  86400.      1440.0      24.000      1.0000     2.73785E-03
 STRESS PERIOD TIME  86400.      1440.0      24.000      1.0000     2.73785E-03
         TOTAL TIME 1.50336E+07 2.50560E+05  4176.0      174.00     0.47639    
1
1
                            STRESS PERIOD NO.  175, LENGTH =   1.000000    
                            -----------------------------------------------

                              NUMBER OF TIME STEPS =     1

                               MULTIPLIER FOR DELT =     1.000

                            INITIAL TIME STEP SIZE =   1.000000    

 REUSING NON-PARAMETER RIVER REACHES FROM LAST STRESS PERIOD

      2 RIVER REACHES

                 RECHARGE = -3.075000E-03
 
 SOLVING FOR HEAD 

 OUTPUT CONTROL FOR STRESS PERIOD  175   TIME STEP    1
    SAVE HEAD FOR ALL LAYERS

 HEAD WILL BE SAVED ON UNIT   51 AT END OF TIME STEP    1, STRESS PERIOD  175
1
  VOLUMETRIC BUDGET FOR ENTIRE MODEL AT END OF TIME STEP    1, STRESS PERIOD 175
  ------------------------------------------------------------------------------

     CUMULATIVE VOLUMES      L**3       RATES FOR THIS TIME STEP      L**3/T
     ------------------                 ------------------------

           IN:                                      IN:
           ---                                      ---
             STORAGE =        3545.6895               STORAGE =          31.0887
       CONSTANT HEAD =           0.0000         CONSTANT HEAD =           0.0000
       RIVER LEAKAGE =         470.6337         RIVER LEAKAGE =           2.3736
            RECHARGE =        2580.0000              RECHARGE =           0.0000

            TOTAL IN =        6596.3232              TOTAL IN =          33.4623

          OUT:                                     OUT:
          ----                                     ----
             STORAGE =        2446.7122               STORAGE =           0.0000
       CONSTANT HEAD =         531.5758         CONSTANT HEAD =           2.7124
       RIVER LEAKAGE =         182.0350         RIVER LEAKAGE =           0.0000
            RECHARGE =        3436.0000              RECHARGE =          30.7500

           TOTAL OUT =        6596.3232             TOTAL OUT =          33.4624

            IN - OUT =           0.0000              IN - OUT =      -5.7220E-05

 PERCENT DISCREPANCY =           0.00     PERCENT DISCREPANCY =          -0.00






         TIME SUMMARY AT END OF TIME STEP    1 IN STRESS PERIOD  175
                    SECONDS     MINUTES      HOURS       DAYS        YEARS
                    -----------------------------------------------------------
   TIME STEP LENGTH  86400.      1440.0      24.000      1.0000     2.73785E-03
 STRESS PERIOD TIME  86400.      1440.0      24.000      1.0000     2.73785E-03
         TOTAL TIME 1.51200E+07 2.52000E+05  4200.0      175.00     0.47912    
1
1
                            STRESS PERIOD NO.  176, LENGTH =   1.000000    
                            -----------------------------------------------

                              NUMBER OF TIME STEPS =     1

                               MULTIPLIER FOR DELT =     1.000

                            INITIAL TIME STEP SIZE =   1.000000    

 REUSING NON-PARAMETER RIVER REACHES FROM LAST STRESS PERIOD

      2 RIVER REACHES

                 RECHARGE = -1.700000E-03
 
 SOLVING FOR HEAD 

 OUTPUT CONTROL FOR STRESS PERIOD  176   TIME STEP    1
    SAVE HEAD FOR ALL LAYERS

 HEAD WILL BE SAVED ON UNIT   51 AT END OF TIME STEP    1, STRESS PERIOD  176
1
  VOLUMETRIC BUDGET FOR ENTIRE MODEL AT END OF TIME STEP    1, STRESS PERIOD 176
  ------------------------------------------------------------------------------

     CUMULATIVE VOLUMES      L**3       RATES FOR THIS TIME STEP      L**3/T
     ------------------                 ------------------------

           IN:                                      IN:
           ---                                      ---
             STORAGE =        3562.3860               STORAGE =          16.6964
       CONSTANT HEAD =           0.0000         CONSTANT HEAD =           0.0000
       RIVER LEAKAGE =         473.6475         RIVER LEAKAGE =           3.0138
            RECHARGE =        2580.0000              RECHARGE =           0.0000

            TOTAL IN =        6616.0332              TOTAL IN =          19.7102

          OUT:                                     OUT:
          ----                                     ----
             STORAGE =        2446.7122               STORAGE =           0.0000
       CONSTANT HEAD =         534.2860         CONSTANT HEAD =           2.7102
       RIVER LEAKAGE =         182.0350         RIVER LEAKAGE =           0.0000
            RECHARGE =        3453.0000              RECHARGE =          17.0000

           TOTAL OUT =        6616.0332             TOTAL OUT =          19.7102

            IN - OUT =           0.0000              IN - OUT =       4.1962E-05

 PERCENT DISCREPANCY =           0.00     PERCENT DISCREPANCY =           0.00






         TIME SUMMARY AT END OF TIME STEP    1 IN STRESS PERIOD  176
                    SECONDS     MINUTES      HOURS       DAYS        YEARS
                    -----------------------------------------------------------
   TIME STEP LENGTH  86400.      1440.0      24.000      1.0000     2.73785E-03
 STRESS PERIOD TIME  86400.      1440.0      24.000      1.0000     2.73785E-03
         TOTAL TIME 1.52064E+07 2.53440E+05  4224.0      176.00     0.48186    
1
1
                            STRESS PERIOD NO.  177, LENGTH =   1.000000    
                            -----------------------------------------------

                              NUMBER OF TIME STEPS =     1

                               MULTIPLIER FOR DELT =     1.000

                            INITIAL TIME STEP SIZE =   1.000000    

 REUSING NON-PARAMETER RIVER REACHES FROM LAST STRESS PERIOD

      2 RIVER REACHES

                 RECHARGE = -3.400000E-03
 
 SOLVING FOR HEAD 

 OUTPUT CONTROL FOR STRESS PERIOD  177   TIME STEP    1
    SAVE HEAD FOR ALL LAYERS

 HEAD WILL BE SAVED ON UNIT   51 AT END OF TIME STEP    1, STRESS PERIOD  177
1
  VOLUMETRIC BUDGET FOR ENTIRE MODEL AT END OF TIME STEP    1, STRESS PERIOD 177
  ------------------------------------------------------------------------------

     CUMULATIVE VOLUMES      L**3       RATES FOR THIS TIME STEP      L**3/T
     ------------------                 ------------------------

           IN:                                      IN:
           ---                                      ---
             STORAGE =        3595.0354               STORAGE =          32.6495
       CONSTANT HEAD =           0.0000         CONSTANT HEAD =           0.0000
       RIVER LEAKAGE =         477.7050         RIVER LEAKAGE =           4.0576
            RECHARGE =        2580.0000              RECHARGE =           0.0000

            TOTAL IN =        6652.7402              TOTAL IN =          36.7071

          OUT:                                     OUT:
          ----                                     ----
             STORAGE =        2446.7122               STORAGE =           0.0000
       CONSTANT HEAD =         536.9932         CONSTANT HEAD =           2.7071
       RIVER LEAKAGE =         182.0350         RIVER LEAKAGE =           0.0000
            RECHARGE =        3487.0000              RECHARGE =          34.0000

           TOTAL OUT =        6652.7402             TOTAL OUT =          36.7071

            IN - OUT =           0.0000              IN - OUT =      -6.8665E-05

 PERCENT DISCREPANCY =           0.00     PERCENT DISCREPANCY =          -0.00






         TIME SUMMARY AT END OF TIME STEP    1 IN STRESS PERIOD  177
                    SECONDS     MINUTES      HOURS       DAYS        YEARS
                    -----------------------------------------------------------
   TIME STEP LENGTH  86400.      1440.0      24.000      1.0000     2.73785E-03
 STRESS PERIOD TIME  86400.      1440.0      24.000      1.0000     2.73785E-03
         TOTAL TIME 1.52928E+07 2.54880E+05  4248.0      177.00     0.48460    
1
1
                            STRESS PERIOD NO.  178, LENGTH =   1.000000    
                            -----------------------------------------------

                              NUMBER OF TIME STEPS =     1

                               MULTIPLIER FOR DELT =     1.000

                            INITIAL TIME STEP SIZE =   1.000000    

 REUSING NON-PARAMETER RIVER REACHES FROM LAST STRESS PERIOD

      2 RIVER REACHES

                 RECHARGE = -3.200000E-03
 
 SOLVING FOR HEAD 

 OUTPUT CONTROL FOR STRESS PERIOD  178   TIME STEP    1
    SAVE HEAD FOR ALL LAYERS

 HEAD WILL BE SAVED ON UNIT   51 AT END OF TIME STEP    1, STRESS PERIOD  178
1
  VOLUMETRIC BUDGET FOR ENTIRE MODEL AT END OF TIME STEP    1, STRESS PERIOD 178
  ------------------------------------------------------------------------------

     CUMULATIVE VOLUMES      L**3       RATES FOR THIS TIME STEP      L**3/T
     ------------------                 ------------------------

           IN:                                      IN:
           ---                                      ---
             STORAGE =        3625.0371               STORAGE =          30.0018
       CONSTANT HEAD =           0.0000         CONSTANT HEAD =           0.0000
       RIVER LEAKAGE =         482.4070         RIVER LEAKAGE =           4.7020
            RECHARGE =        2580.0000              RECHARGE =           0.0000

            TOTAL IN =        6687.4443              TOTAL IN =          34.7037

          OUT:                                     OUT:
          ----                                     ----
             STORAGE =        2446.7122               STORAGE =           0.0000
       CONSTANT HEAD =         539.6968         CONSTANT HEAD =           2.7037
       RIVER LEAKAGE =         182.0350         RIVER LEAKAGE =           0.0000
            RECHARGE =        3519.0000              RECHARGE =          32.0000

           TOTAL OUT =        6687.4443             TOTAL OUT =          34.7037

            IN - OUT =           0.0000              IN - OUT =       7.2479E-05

 PERCENT DISCREPANCY =           0.00     PERCENT DISCREPANCY =           0.00






         TIME SUMMARY AT END OF TIME STEP    1 IN STRESS PERIOD  178
                    SECONDS     MINUTES      HOURS       DAYS        YEARS
                    -----------------------------------------------------------
   TIME STEP LENGTH  86400.      1440.0      24.000      1.0000     2.73785E-03
 STRESS PERIOD TIME  86400.      1440.0      24.000      1.0000     2.73785E-03
         TOTAL TIME 1.53792E+07 2.56320E+05  4272.0      178.00     0.48734    
1
1
                            STRESS PERIOD NO.  179, LENGTH =   1.000000    
                            -----------------------------------------------

                              NUMBER OF TIME STEPS =     1

                               MULTIPLIER FOR DELT =     1.000

                            INITIAL TIME STEP SIZE =   1.000000    

 REUSING NON-PARAMETER RIVER REACHES FROM LAST STRESS PERIOD

      2 RIVER REACHES

                 RECHARGE = -2.375000E-03
 
 SOLVING FOR HEAD 

 OUTPUT CONTROL FOR STRESS PERIOD  179   TIME STEP    1
    SAVE HEAD FOR ALL LAYERS

 HEAD WILL BE SAVED ON UNIT   51 AT END OF TIME STEP    1, STRESS PERIOD  179
1
  VOLUMETRIC BUDGET FOR ENTIRE MODEL AT END OF TIME STEP    1, STRESS PERIOD 179
  ------------------------------------------------------------------------------

     CUMULATIVE VOLUMES      L**3       RATES FOR THIS TIME STEP      L**3/T
     ------------------                 ------------------------

           IN:                                      IN:
           ---                                      ---
             STORAGE =        3646.5476               STORAGE =          21.5104
       CONSTANT HEAD =           0.0000         CONSTANT HEAD =           0.0000
       RIVER LEAKAGE =         487.3467         RIVER LEAKAGE =           4.9398
            RECHARGE =        2580.0000              RECHARGE =           0.0000

            TOTAL IN =        6713.8945              TOTAL IN =          26.4502

          OUT:                                     OUT:
          ----                                     ----
             STORAGE =        2446.7122               STORAGE =           0.0000
       CONSTANT HEAD =         542.3970         CONSTANT HEAD =           2.7002
       RIVER LEAKAGE =         182.0350         RIVER LEAKAGE =           0.0000
            RECHARGE =        3542.7500              RECHARGE =          23.7500

           TOTAL OUT =        6713.8945             TOTAL OUT =          26.4502

            IN - OUT =           0.0000              IN - OUT =       1.1444E-05

 PERCENT DISCREPANCY =           0.00     PERCENT DISCREPANCY =           0.00






         TIME SUMMARY AT END OF TIME STEP    1 IN STRESS PERIOD  179
                    SECONDS     MINUTES      HOURS       DAYS        YEARS
                    -----------------------------------------------------------
   TIME STEP LENGTH  86400.      1440.0      24.000      1.0000     2.73785E-03
 STRESS PERIOD TIME  86400.      1440.0      24.000      1.0000     2.73785E-03
         TOTAL TIME 1.54656E+07 2.57760E+05  4296.0      179.00     0.49008    
1
1
                            STRESS PERIOD NO.  180, LENGTH =   1.000000    
                            -----------------------------------------------

                              NUMBER OF TIME STEPS =     1

                               MULTIPLIER FOR DELT =     1.000

                            INITIAL TIME STEP SIZE =   1.000000    

 REUSING NON-PARAMETER RIVER REACHES FROM LAST STRESS PERIOD

      2 RIVER REACHES

                 RECHARGE = -3.200000E-03
 
 SOLVING FOR HEAD 

 OUTPUT CONTROL FOR STRESS PERIOD  180   TIME STEP    1
    SAVE HEAD FOR ALL LAYERS

 HEAD WILL BE SAVED ON UNIT   51 AT END OF TIME STEP    1, STRESS PERIOD  180
1
  VOLUMETRIC BUDGET FOR ENTIRE MODEL AT END OF TIME STEP    1, STRESS PERIOD 180
  ------------------------------------------------------------------------------

     CUMULATIVE VOLUMES      L**3       RATES FOR THIS TIME STEP      L**3/T
     ------------------                 ------------------------

           IN:                                      IN:
           ---                                      ---
             STORAGE =        3675.7495               STORAGE =          29.2020
       CONSTANT HEAD =           0.0000         CONSTANT HEAD =           0.0000
       RIVER LEAKAGE =         492.8411         RIVER LEAKAGE =           5.4943
            RECHARGE =        2580.0000              RECHARGE =           0.0000

            TOTAL IN =        6748.5908              TOTAL IN =          34.6963

          OUT:                                     OUT:
          ----                                     ----
             STORAGE =        2446.7122               STORAGE =           0.0000
       CONSTANT HEAD =         545.0932         CONSTANT HEAD =           2.6962
       RIVER LEAKAGE =         182.0350         RIVER LEAKAGE =           0.0000
            RECHARGE =        3574.7500              RECHARGE =          32.0000

           TOTAL OUT =        6748.5908             TOTAL OUT =          34.6962

            IN - OUT =           0.0000              IN - OUT =       8.0109E-05

 PERCENT DISCREPANCY =           0.00     PERCENT DISCREPANCY =           0.00






         TIME SUMMARY AT END OF TIME STEP    1 IN STRESS PERIOD  180
                    SECONDS     MINUTES      HOURS       DAYS        YEARS
                    -----------------------------------------------------------
   TIME STEP LENGTH  86400.      1440.0      24.000      1.0000     2.73785E-03
 STRESS PERIOD TIME  86400.      1440.0      24.000      1.0000     2.73785E-03
         TOTAL TIME 1.55520E+07 2.59200E+05  4320.0      180.00     0.49281    
1
1
                            STRESS PERIOD NO.  181, LENGTH =   1.000000    
                            -----------------------------------------------

                              NUMBER OF TIME STEPS =     1

                               MULTIPLIER FOR DELT =     1.000

                            INITIAL TIME STEP SIZE =   1.000000    

 REUSING NON-PARAMETER RIVER REACHES FROM LAST STRESS PERIOD

      2 RIVER REACHES

                 RECHARGE = -3.100000E-03
 
 SOLVING FOR HEAD 

 OUTPUT CONTROL FOR STRESS PERIOD  181   TIME STEP    1
    SAVE HEAD FOR ALL LAYERS

 HEAD WILL BE SAVED ON UNIT   51 AT END OF TIME STEP    1, STRESS PERIOD  181
1
  VOLUMETRIC BUDGET FOR ENTIRE MODEL AT END OF TIME STEP    1, STRESS PERIOD 181
  ------------------------------------------------------------------------------

     CUMULATIVE VOLUMES      L**3       RATES FOR THIS TIME STEP      L**3/T
     ------------------                 ------------------------

           IN:                                      IN:
           ---                                      ---
             STORAGE =        3703.5488               STORAGE =          27.7992
       CONSTANT HEAD =           0.0000         CONSTANT HEAD =           0.0000
       RIVER LEAKAGE =         498.7338         RIVER LEAKAGE =           5.8928
            RECHARGE =        2580.0000              RECHARGE =           0.0000

            TOTAL IN =        6782.2827              TOTAL IN =          33.6920

          OUT:                                     OUT:
          ----                                     ----
             STORAGE =        2446.7122               STORAGE =           0.0000
       CONSTANT HEAD =         547.7853         CONSTANT HEAD =           2.6921
       RIVER LEAKAGE =         182.0350         RIVER LEAKAGE =           0.0000
            RECHARGE =        3605.7500              RECHARGE =          31.0000

           TOTAL OUT =        6782.2827             TOTAL OUT =          33.6921

            IN - OUT =           0.0000              IN - OUT =      -4.5776E-05

 PERCENT DISCREPANCY =           0.00     PERCENT DISCREPANCY =          -0.00






         TIME SUMMARY AT END OF TIME STEP    1 IN STRESS PERIOD  181
                    SECONDS     MINUTES      HOURS       DAYS        YEARS
                    -----------------------------------------------------------
   TIME STEP LENGTH  86400.      1440.0      24.000      1.0000     2.73785E-03
 STRESS PERIOD TIME  86400.      1440.0      24.000      1.0000     2.73785E-03
         TOTAL TIME 1.56384E+07 2.60640E+05  4344.0      181.00     0.49555    
1
1
                            STRESS PERIOD NO.  182, LENGTH =   1.000000    
                            -----------------------------------------------

                              NUMBER OF TIME STEPS =     1

                               MULTIPLIER FOR DELT =     1.000

                            INITIAL TIME STEP SIZE =   1.000000    

 REUSING NON-PARAMETER RIVER REACHES FROM LAST STRESS PERIOD

      2 RIVER REACHES

                 RECHARGE = -3.300000E-03
 
 SOLVING FOR HEAD 

 OUTPUT CONTROL FOR STRESS PERIOD  182   TIME STEP    1
    SAVE HEAD FOR ALL LAYERS

 HEAD WILL BE SAVED ON UNIT   51 AT END OF TIME STEP    1, STRESS PERIOD  182
1
  VOLUMETRIC BUDGET FOR ENTIRE MODEL AT END OF TIME STEP    1, STRESS PERIOD 182
  ------------------------------------------------------------------------------

     CUMULATIVE VOLUMES      L**3       RATES FOR THIS TIME STEP      L**3/T
     ------------------                 ------------------------

           IN:                                      IN:
           ---                                      ---
             STORAGE =        3732.9207               STORAGE =          29.3719
       CONSTANT HEAD =           0.0000         CONSTANT HEAD =           0.0000
       RIVER LEAKAGE =         505.0494         RIVER LEAKAGE =           6.3156
            RECHARGE =        2580.0000              RECHARGE =           0.0000

            TOTAL IN =        6817.9702              TOTAL IN =          35.6875

          OUT:                                     OUT:
          ----                                     ----
             STORAGE =        2446.7122               STORAGE =           0.0000
       CONSTANT HEAD =         550.4729         CONSTANT HEAD =           2.6876
       RIVER LEAKAGE =         182.0350         RIVER LEAKAGE =           0.0000
            RECHARGE =        3638.7500              RECHARGE =          33.0000

           TOTAL OUT =        6817.9702             TOTAL OUT =          35.6876

            IN - OUT =           0.0000              IN - OUT =      -6.1035E-05

 PERCENT DISCREPANCY =           0.00     PERCENT DISCREPANCY =          -0.00






         TIME SUMMARY AT END OF TIME STEP    1 IN STRESS PERIOD  182
                    SECONDS     MINUTES      HOURS       DAYS        YEARS
                    -----------------------------------------------------------
   TIME STEP LENGTH  86400.      1440.0      24.000      1.0000     2.73785E-03
 STRESS PERIOD TIME  86400.      1440.0      24.000      1.0000     2.73785E-03
         TOTAL TIME 1.57248E+07 2.62080E+05  4368.0      182.00     0.49829    
1
1
                            STRESS PERIOD NO.  183, LENGTH =   1.000000    
                            -----------------------------------------------

                              NUMBER OF TIME STEPS =     1

                               MULTIPLIER FOR DELT =     1.000

                            INITIAL TIME STEP SIZE =   1.000000    

 REUSING NON-PARAMETER RIVER REACHES FROM LAST STRESS PERIOD

      2 RIVER REACHES

                 RECHARGE = -3.500000E-03
 
 SOLVING FOR HEAD 

 OUTPUT CONTROL FOR STRESS PERIOD  183   TIME STEP    1
    SAVE HEAD FOR ALL LAYERS

 HEAD WILL BE SAVED ON UNIT   51 AT END OF TIME STEP    1, STRESS PERIOD  183
1
  VOLUMETRIC BUDGET FOR ENTIRE MODEL AT END OF TIME STEP    1, STRESS PERIOD 183
  ------------------------------------------------------------------------------

     CUMULATIVE VOLUMES      L**3       RATES FOR THIS TIME STEP      L**3/T
     ------------------                 ------------------------

           IN:                                      IN:
           ---                                      ---
             STORAGE =        3763.8555               STORAGE =          30.9348
       CONSTANT HEAD =           0.0000         CONSTANT HEAD =           0.0000
       RIVER LEAKAGE =         511.7976         RIVER LEAKAGE =           6.7481
            RECHARGE =        2580.0000              RECHARGE =           0.0000

            TOTAL IN =        6855.6528              TOTAL IN =          37.6829

          OUT:                                     OUT:
          ----                                     ----
             STORAGE =        2446.7122               STORAGE =           0.0000
       CONSTANT HEAD =         553.1558         CONSTANT HEAD =           2.6829
       RIVER LEAKAGE =         182.0350         RIVER LEAKAGE =           0.0000
            RECHARGE =        3673.7500              RECHARGE =          35.0000

           TOTAL OUT =        6855.6533             TOTAL OUT =          37.6829

            IN - OUT =      -4.8828E-04              IN - OUT =       4.1962E-05

 PERCENT DISCREPANCY =          -0.00     PERCENT DISCREPANCY =           0.00






         TIME SUMMARY AT END OF TIME STEP    1 IN STRESS PERIOD  183
                    SECONDS     MINUTES      HOURS       DAYS        YEARS
                    -----------------------------------------------------------
   TIME STEP LENGTH  86400.      1440.0      24.000      1.0000     2.73785E-03
 STRESS PERIOD TIME  86400.      1440.0      24.000      1.0000     2.73785E-03
         TOTAL TIME 1.58112E+07 2.63520E+05  4392.0      183.00     0.50103    
1
1
                            STRESS PERIOD NO.  184, LENGTH =   1.000000    
                            -----------------------------------------------

                              NUMBER OF TIME STEPS =     1

                               MULTIPLIER FOR DELT =     1.000

                            INITIAL TIME STEP SIZE =   1.000000    

 REUSING NON-PARAMETER RIVER REACHES FROM LAST STRESS PERIOD

      2 RIVER REACHES

                 RECHARGE = -1.600000E-03
 
 SOLVING FOR HEAD 

 OUTPUT CONTROL FOR STRESS PERIOD  184   TIME STEP    1
    SAVE HEAD FOR ALL LAYERS

 HEAD WILL BE SAVED ON UNIT   51 AT END OF TIME STEP    1, STRESS PERIOD  184
1
  VOLUMETRIC BUDGET FOR ENTIRE MODEL AT END OF TIME STEP    1, STRESS PERIOD 184
  ------------------------------------------------------------------------------

     CUMULATIVE VOLUMES      L**3       RATES FOR THIS TIME STEP      L**3/T
     ------------------                 ------------------------

           IN:                                      IN:
           ---                                      ---
             STORAGE =        3776.3076               STORAGE =          12.4521
       CONSTANT HEAD =           0.0000         CONSTANT HEAD =           0.0000
       RIVER LEAKAGE =         518.2607         RIVER LEAKAGE =           6.4632
            RECHARGE =        2580.0000              RECHARGE =           0.0000

            TOTAL IN =        6874.5684              TOTAL IN =          18.9153

          OUT:                                     OUT:
          ----                                     ----
             STORAGE =        2446.9490               STORAGE =           0.2368
       CONSTANT HEAD =         555.8344         CONSTANT HEAD =           2.6786
       RIVER LEAKAGE =         182.0350         RIVER LEAKAGE =           0.0000
            RECHARGE =        3689.7500              RECHARGE =          16.0000

           TOTAL OUT =        6874.5684             TOTAL OUT =          18.9154

            IN - OUT =           0.0000              IN - OUT =      -7.0572E-05

 PERCENT DISCREPANCY =           0.00     PERCENT DISCREPANCY =          -0.00






         TIME SUMMARY AT END OF TIME STEP    1 IN STRESS PERIOD  184
                    SECONDS     MINUTES      HOURS       DAYS        YEARS
                    -----------------------------------------------------------
   TIME STEP LENGTH  86400.      1440.0      24.000      1.0000     2.73785E-03
 STRESS PERIOD TIME  86400.      1440.0      24.000      1.0000     2.73785E-03
         TOTAL TIME 1.58976E+07 2.64960E+05  4416.0      184.00     0.50376    
1
1
                            STRESS PERIOD NO.  185, LENGTH =   1.000000    
                            -----------------------------------------------

                              NUMBER OF TIME STEPS =     1

                               MULTIPLIER FOR DELT =     1.000

                            INITIAL TIME STEP SIZE =   1.000000    

 REUSING NON-PARAMETER RIVER REACHES FROM LAST STRESS PERIOD

      2 RIVER REACHES

                 RECHARGE =  7.900000E-03
 
 SOLVING FOR HEAD 

 OUTPUT CONTROL FOR STRESS PERIOD  185   TIME STEP    1
    SAVE HEAD FOR ALL LAYERS

 HEAD WILL BE SAVED ON UNIT   51 AT END OF TIME STEP    1, STRESS PERIOD  185
1
  VOLUMETRIC BUDGET FOR ENTIRE MODEL AT END OF TIME STEP    1, STRESS PERIOD 185
  ------------------------------------------------------------------------------

     CUMULATIVE VOLUMES      L**3       RATES FOR THIS TIME STEP      L**3/T
     ------------------                 ------------------------

           IN:                                      IN:
           ---                                      ---
             STORAGE =        3776.5081               STORAGE =           0.2004
       CONSTANT HEAD =           0.0000         CONSTANT HEAD =           0.0000
       RIVER LEAKAGE =         521.3694         RIVER LEAKAGE =           3.1087
            RECHARGE =        2659.0000              RECHARGE =          79.0000

            TOTAL IN =        6956.8774              TOTAL IN =          82.3091

          OUT:                                     OUT:
          ----                                     ----
             STORAGE =        2526.5803               STORAGE =          79.6315
       CONSTANT HEAD =         558.5120         CONSTANT HEAD =           2.6777
       RIVER LEAKAGE =         182.0350         RIVER LEAKAGE =           0.0000
            RECHARGE =        3689.7500              RECHARGE =           0.0000

           TOTAL OUT =        6956.8774             TOTAL OUT =          82.3091

            IN - OUT =           0.0000              IN - OUT =      -3.8147E-05

 PERCENT DISCREPANCY =           0.00     PERCENT DISCREPANCY =          -0.00






         TIME SUMMARY AT END OF TIME STEP    1 IN STRESS PERIOD  185
                    SECONDS     MINUTES      HOURS       DAYS        YEARS
                    -----------------------------------------------------------
   TIME STEP LENGTH  86400.      1440.0      24.000      1.0000     2.73785E-03
 STRESS PERIOD TIME  86400.      1440.0      24.000      1.0000     2.73785E-03
         TOTAL TIME 1.59840E+07 2.66400E+05  4440.0      185.00     0.50650    
1
1
                            STRESS PERIOD NO.  186, LENGTH =   1.000000    
                            -----------------------------------------------

                              NUMBER OF TIME STEPS =     1

                               MULTIPLIER FOR DELT =     1.000

                            INITIAL TIME STEP SIZE =   1.000000    

 REUSING NON-PARAMETER RIVER REACHES FROM LAST STRESS PERIOD

      2 RIVER REACHES

                 RECHARGE = -2.000000E-04
 
 SOLVING FOR HEAD 

 OUTPUT CONTROL FOR STRESS PERIOD  186   TIME STEP    1
    SAVE HEAD FOR ALL LAYERS

 HEAD WILL BE SAVED ON UNIT   51 AT END OF TIME STEP    1, STRESS PERIOD  186
1
  VOLUMETRIC BUDGET FOR ENTIRE MODEL AT END OF TIME STEP    1, STRESS PERIOD 186
  ------------------------------------------------------------------------------

     CUMULATIVE VOLUMES      L**3       RATES FOR THIS TIME STEP      L**3/T
     ------------------                 ------------------------

           IN:                                      IN:
           ---                                      ---
             STORAGE =        3777.9893               STORAGE =           1.4811
       CONSTANT HEAD =           0.0000         CONSTANT HEAD =           0.0000
       RIVER LEAKAGE =         525.2424         RIVER LEAKAGE =           3.8729
            RECHARGE =        2659.0000              RECHARGE =           0.0000

            TOTAL IN =        6962.2314              TOTAL IN =           5.3541

          OUT:                                     OUT:
          ----                                     ----
             STORAGE =        2527.2588               STORAGE =           0.6786
       CONSTANT HEAD =         561.1874         CONSTANT HEAD =           2.6754
       RIVER LEAKAGE =         182.0350         RIVER LEAKAGE =           0.0000
            RECHARGE =        3691.7500              RECHARGE =           2.0000

           TOTAL OUT =        6962.2314             TOTAL OUT =           5.3540

            IN - OUT =           0.0000              IN - OUT =       3.4809E-05

 PERCENT DISCREPANCY =           0.00     PERCENT DISCREPANCY =           0.00






         TIME SUMMARY AT END OF TIME STEP    1 IN STRESS PERIOD  186
                    SECONDS     MINUTES      HOURS       DAYS        YEARS
                    -----------------------------------------------------------
   TIME STEP LENGTH  86400.      1440.0      24.000      1.0000     2.73785E-03
 STRESS PERIOD TIME  86400.      1440.0      24.000      1.0000     2.73785E-03
         TOTAL TIME 1.60704E+07 2.67840E+05  4464.0      186.00     0.50924    
1
1
                            STRESS PERIOD NO.  187, LENGTH =   1.000000    
                            -----------------------------------------------

                              NUMBER OF TIME STEPS =     1

                               MULTIPLIER FOR DELT =     1.000

                            INITIAL TIME STEP SIZE =   1.000000    

 REUSING NON-PARAMETER RIVER REACHES FROM LAST STRESS PERIOD

      2 RIVER REACHES

                 RECHARGE = -1.700000E-03
 
 SOLVING FOR HEAD 

 OUTPUT CONTROL FOR STRESS PERIOD  187   TIME STEP    1
    SAVE HEAD FOR ALL LAYERS

 HEAD WILL BE SAVED ON UNIT   51 AT END OF TIME STEP    1, STRESS PERIOD  187
1
  VOLUMETRIC BUDGET FOR ENTIRE MODEL AT END OF TIME STEP    1, STRESS PERIOD 187
  ------------------------------------------------------------------------------

     CUMULATIVE VOLUMES      L**3       RATES FOR THIS TIME STEP      L**3/T
     ------------------                 ------------------------

           IN:                                      IN:
           ---                                      ---
             STORAGE =        3793.0759               STORAGE =          15.0868
       CONSTANT HEAD =           0.0000         CONSTANT HEAD =           0.0000
       RIVER LEAKAGE =         529.8282         RIVER LEAKAGE =           4.5858
            RECHARGE =        2659.0000              RECHARGE =           0.0000

            TOTAL IN =        6981.9043              TOTAL IN =          19.6726

          OUT:                                     OUT:
          ----                                     ----
             STORAGE =        2527.2588               STORAGE =           0.0000
       CONSTANT HEAD =         563.8600         CONSTANT HEAD =           2.6725
       RIVER LEAKAGE =         182.0350         RIVER LEAKAGE =           0.0000
            RECHARGE =        3708.7500              RECHARGE =          17.0000

           TOTAL OUT =        6981.9038             TOTAL OUT =          19.6725

            IN - OUT =       4.8828E-04              IN - OUT =       3.8147E-05

 PERCENT DISCREPANCY =           0.00     PERCENT DISCREPANCY =           0.00






         TIME SUMMARY AT END OF TIME STEP    1 IN STRESS PERIOD  187
                    SECONDS     MINUTES      HOURS       DAYS        YEARS
                    -----------------------------------------------------------
   TIME STEP LENGTH  86400.      1440.0      24.000      1.0000     2.73785E-03
 STRESS PERIOD TIME  86400.      1440.0      24.000      1.0000     2.73785E-03
         TOTAL TIME 1.61568E+07 2.69280E+05  4488.0      187.00     0.51198    
1
1
                            STRESS PERIOD NO.  188, LENGTH =   1.000000    
                            -----------------------------------------------

                              NUMBER OF TIME STEPS =     1

                               MULTIPLIER FOR DELT =     1.000

                            INITIAL TIME STEP SIZE =   1.000000    

 REUSING NON-PARAMETER RIVER REACHES FROM LAST STRESS PERIOD

      2 RIVER REACHES

                 RECHARGE = -2.400000E-03
 
 SOLVING FOR HEAD 

 OUTPUT CONTROL FOR STRESS PERIOD  188   TIME STEP    1
    SAVE HEAD FOR ALL LAYERS

 HEAD WILL BE SAVED ON UNIT   51 AT END OF TIME STEP    1, STRESS PERIOD  188
1
  VOLUMETRIC BUDGET FOR ENTIRE MODEL AT END OF TIME STEP    1, STRESS PERIOD 188
  ------------------------------------------------------------------------------

     CUMULATIVE VOLUMES      L**3       RATES FOR THIS TIME STEP      L**3/T
     ------------------                 ------------------------

           IN:                                      IN:
           ---                                      ---
             STORAGE =        3814.5317               STORAGE =          21.4557
       CONSTANT HEAD =           0.0000         CONSTANT HEAD =           0.0000
       RIVER LEAKAGE =         535.0416         RIVER LEAKAGE =           5.2134
            RECHARGE =        2659.0000              RECHARGE =           0.0000

            TOTAL IN =        7008.5732              TOTAL IN =          26.6691

          OUT:                                     OUT:
          ----                                     ----
             STORAGE =        2527.2588               STORAGE =           0.0000
       CONSTANT HEAD =         566.5291         CONSTANT HEAD =           2.6691
       RIVER LEAKAGE =         182.0350         RIVER LEAKAGE =           0.0000
            RECHARGE =        3732.7500              RECHARGE =          24.0000

           TOTAL OUT =        7008.5732             TOTAL OUT =          26.6691

            IN - OUT =           0.0000              IN - OUT =      -3.0518E-05

 PERCENT DISCREPANCY =           0.00     PERCENT DISCREPANCY =          -0.00






         TIME SUMMARY AT END OF TIME STEP    1 IN STRESS PERIOD  188
                    SECONDS     MINUTES      HOURS       DAYS        YEARS
                    -----------------------------------------------------------
   TIME STEP LENGTH  86400.      1440.0      24.000      1.0000     2.73785E-03
 STRESS PERIOD TIME  86400.      1440.0      24.000      1.0000     2.73785E-03
         TOTAL TIME 1.62432E+07 2.70720E+05  4512.0      188.00     0.51472    
1
1
                            STRESS PERIOD NO.  189, LENGTH =   1.000000    
                            -----------------------------------------------

                              NUMBER OF TIME STEPS =     1

                               MULTIPLIER FOR DELT =     1.000

                            INITIAL TIME STEP SIZE =   1.000000    

 REUSING NON-PARAMETER RIVER REACHES FROM LAST STRESS PERIOD

      2 RIVER REACHES

                 RECHARGE = -2.400000E-03
 
 SOLVING FOR HEAD 

 OUTPUT CONTROL FOR STRESS PERIOD  189   TIME STEP    1
    SAVE HEAD FOR ALL LAYERS

 HEAD WILL BE SAVED ON UNIT   51 AT END OF TIME STEP    1, STRESS PERIOD  189
1
  VOLUMETRIC BUDGET FOR ENTIRE MODEL AT END OF TIME STEP    1, STRESS PERIOD 189
  ------------------------------------------------------------------------------

     CUMULATIVE VOLUMES      L**3       RATES FOR THIS TIME STEP      L**3/T
     ------------------                 ------------------------

           IN:                                      IN:
           ---                                      ---
             STORAGE =        3835.5657               STORAGE =          21.0338
       CONSTANT HEAD =           0.0000         CONSTANT HEAD =           0.0000
       RIVER LEAKAGE =         540.6731         RIVER LEAKAGE =           5.6316
            RECHARGE =        2659.0000              RECHARGE =           0.0000

            TOTAL IN =        7035.2388              TOTAL IN =          26.6654

          OUT:                                     OUT:
          ----                                     ----
             STORAGE =        2527.2588               STORAGE =           0.0000
       CONSTANT HEAD =         569.1945         CONSTANT HEAD =           2.6654
       RIVER LEAKAGE =         182.0350         RIVER LEAKAGE =           0.0000
            RECHARGE =        3756.7500              RECHARGE =          24.0000

           TOTAL OUT =        7035.2383             TOTAL OUT =          26.6654

            IN - OUT =       4.8828E-04              IN - OUT =      -2.6703E-05

 PERCENT DISCREPANCY =           0.00     PERCENT DISCREPANCY =          -0.00






         TIME SUMMARY AT END OF TIME STEP    1 IN STRESS PERIOD  189
                    SECONDS     MINUTES      HOURS       DAYS        YEARS
                    -----------------------------------------------------------
   TIME STEP LENGTH  86400.      1440.0      24.000      1.0000     2.73785E-03
 STRESS PERIOD TIME  86400.      1440.0      24.000      1.0000     2.73785E-03
         TOTAL TIME 1.63296E+07 2.72160E+05  4536.0      189.00     0.51745    
1
1
                            STRESS PERIOD NO.  190, LENGTH =   1.000000    
                            -----------------------------------------------

                              NUMBER OF TIME STEPS =     1

                               MULTIPLIER FOR DELT =     1.000

                            INITIAL TIME STEP SIZE =   1.000000    

 REUSING NON-PARAMETER RIVER REACHES FROM LAST STRESS PERIOD

      2 RIVER REACHES

                 RECHARGE = -2.700000E-03
 
 SOLVING FOR HEAD 

 OUTPUT CONTROL FOR STRESS PERIOD  190   TIME STEP    1
    SAVE HEAD FOR ALL LAYERS

 HEAD WILL BE SAVED ON UNIT   51 AT END OF TIME STEP    1, STRESS PERIOD  190
1
  VOLUMETRIC BUDGET FOR ENTIRE MODEL AT END OF TIME STEP    1, STRESS PERIOD 190
  ------------------------------------------------------------------------------

     CUMULATIVE VOLUMES      L**3       RATES FOR THIS TIME STEP      L**3/T
     ------------------                 ------------------------

           IN:                                      IN:
           ---                                      ---
             STORAGE =        3859.1655               STORAGE =          23.5997
       CONSTANT HEAD =           0.0000         CONSTANT HEAD =           0.0000
       RIVER LEAKAGE =         546.7348         RIVER LEAKAGE =           6.0617
            RECHARGE =        2659.0000              RECHARGE =           0.0000

            TOTAL IN =        7064.9004              TOTAL IN =          29.6614

          OUT:                                     OUT:
          ----                                     ----
             STORAGE =        2527.2588               STORAGE =           0.0000
       CONSTANT HEAD =         571.8560         CONSTANT HEAD =           2.6614
       RIVER LEAKAGE =         182.0350         RIVER LEAKAGE =           0.0000
            RECHARGE =        3783.7500              RECHARGE =          27.0000

           TOTAL OUT =        7064.8999             TOTAL OUT =          29.6614

            IN - OUT =       4.8828E-04              IN - OUT =      -1.1444E-05

 PERCENT DISCREPANCY =           0.00     PERCENT DISCREPANCY =          -0.00






         TIME SUMMARY AT END OF TIME STEP    1 IN STRESS PERIOD  190
                    SECONDS     MINUTES      HOURS       DAYS        YEARS
                    -----------------------------------------------------------
   TIME STEP LENGTH  86400.      1440.0      24.000      1.0000     2.73785E-03
 STRESS PERIOD TIME  86400.      1440.0      24.000      1.0000     2.73785E-03
         TOTAL TIME 1.64160E+07 2.73600E+05  4560.0      190.00     0.52019    
1
1
                            STRESS PERIOD NO.  191, LENGTH =   1.000000    
                            -----------------------------------------------

                              NUMBER OF TIME STEPS =     1

                               MULTIPLIER FOR DELT =     1.000

                            INITIAL TIME STEP SIZE =   1.000000    

 REUSING NON-PARAMETER RIVER REACHES FROM LAST STRESS PERIOD

      2 RIVER REACHES

                 RECHARGE = -8.000000E-04
 
 SOLVING FOR HEAD 

 OUTPUT CONTROL FOR STRESS PERIOD  191   TIME STEP    1
    SAVE HEAD FOR ALL LAYERS

 HEAD WILL BE SAVED ON UNIT   51 AT END OF TIME STEP    1, STRESS PERIOD  191
1
  VOLUMETRIC BUDGET FOR ENTIRE MODEL AT END OF TIME STEP    1, STRESS PERIOD 191
  ------------------------------------------------------------------------------

     CUMULATIVE VOLUMES      L**3       RATES FOR THIS TIME STEP      L**3/T
     ------------------                 ------------------------

           IN:                                      IN:
           ---                                      ---
             STORAGE =        3864.4902               STORAGE =           5.3247
       CONSTANT HEAD =           0.0000         CONSTANT HEAD =           0.0000
       RIVER LEAKAGE =         552.4789         RIVER LEAKAGE =           5.7441
            RECHARGE =        2659.0000              RECHARGE =           0.0000

            TOTAL IN =        7075.9692              TOTAL IN =          11.0688

          OUT:                                     OUT:
          ----                                     ----
             STORAGE =        2527.6699               STORAGE =           0.4111
       CONSTANT HEAD =         574.5139         CONSTANT HEAD =           2.6579
       RIVER LEAKAGE =         182.0350         RIVER LEAKAGE =           0.0000
            RECHARGE =        3791.7500              RECHARGE =           8.0000

           TOTAL OUT =        7075.9688             TOTAL OUT =          11.0690

            IN - OUT =       4.8828E-04              IN - OUT =      -1.1349E-04

 PERCENT DISCREPANCY =           0.00     PERCENT DISCREPANCY =          -0.00






         TIME SUMMARY AT END OF TIME STEP    1 IN STRESS PERIOD  191
                    SECONDS     MINUTES      HOURS       DAYS        YEARS
                    -----------------------------------------------------------
   TIME STEP LENGTH  86400.      1440.0      24.000      1.0000     2.73785E-03
 STRESS PERIOD TIME  86400.      1440.0      24.000      1.0000     2.73785E-03
         TOTAL TIME 1.65024E+07 2.75040E+05  4584.0      191.00     0.52293    
1
1
                            STRESS PERIOD NO.  192, LENGTH =   1.000000    
                            -----------------------------------------------

                              NUMBER OF TIME STEPS =     1

                               MULTIPLIER FOR DELT =     1.000

                            INITIAL TIME STEP SIZE =   1.000000    

 REUSING NON-PARAMETER RIVER REACHES FROM LAST STRESS PERIOD

      2 RIVER REACHES

                 RECHARGE =  1.800000E-03
 
 SOLVING FOR HEAD 

 OUTPUT CONTROL FOR STRESS PERIOD  192   TIME STEP    1
    SAVE HEAD FOR ALL LAYERS

 HEAD WILL BE SAVED ON UNIT   51 AT END OF TIME STEP    1, STRESS PERIOD  192
1
  VOLUMETRIC BUDGET FOR ENTIRE MODEL AT END OF TIME STEP    1, STRESS PERIOD 192
  ------------------------------------------------------------------------------

     CUMULATIVE VOLUMES      L**3       RATES FOR THIS TIME STEP      L**3/T
     ------------------                 ------------------------

           IN:                                      IN:
           ---                                      ---
             STORAGE =        3864.7109               STORAGE =           0.2206
       CONSTANT HEAD =           0.0000         CONSTANT HEAD =           0.0000
       RIVER LEAKAGE =         557.2088         RIVER LEAKAGE =           4.7299
            RECHARGE =        2677.0000              RECHARGE =          18.0000

            TOTAL IN =        7098.9199              TOTAL IN =          22.9505

          OUT:                                     OUT:
          ----                                     ----
             STORAGE =        2547.9648               STORAGE =          20.2950
       CONSTANT HEAD =         577.1693         CONSTANT HEAD =           2.6554
       RIVER LEAKAGE =         182.0350         RIVER LEAKAGE =           0.0000
            RECHARGE =        3791.7500              RECHARGE =           0.0000

           TOTAL OUT =        7098.9189             TOTAL OUT =          22.9504

            IN - OUT =       9.7656E-04              IN - OUT =       6.4850E-05

 PERCENT DISCREPANCY =           0.00     PERCENT DISCREPANCY =           0.00






         TIME SUMMARY AT END OF TIME STEP    1 IN STRESS PERIOD  192
                    SECONDS     MINUTES      HOURS       DAYS        YEARS
                    -----------------------------------------------------------
   TIME STEP LENGTH  86400.      1440.0      24.000      1.0000     2.73785E-03
 STRESS PERIOD TIME  86400.      1440.0      24.000      1.0000     2.73785E-03
         TOTAL TIME 1.65888E+07 2.76480E+05  4608.0      192.00     0.52567    
1
1
                            STRESS PERIOD NO.  193, LENGTH =   1.000000    
                            -----------------------------------------------

                              NUMBER OF TIME STEPS =     1

                               MULTIPLIER FOR DELT =     1.000

                            INITIAL TIME STEP SIZE =   1.000000    

 REUSING NON-PARAMETER RIVER REACHES FROM LAST STRESS PERIOD

      2 RIVER REACHES

                 RECHARGE =  1.400000E-03
 
 SOLVING FOR HEAD 

 OUTPUT CONTROL FOR STRESS PERIOD  193   TIME STEP    1
    SAVE HEAD FOR ALL LAYERS

 HEAD WILL BE SAVED ON UNIT   51 AT END OF TIME STEP    1, STRESS PERIOD  193
1
  VOLUMETRIC BUDGET FOR ENTIRE MODEL AT END OF TIME STEP    1, STRESS PERIOD 193
  ------------------------------------------------------------------------------

     CUMULATIVE VOLUMES      L**3       RATES FOR THIS TIME STEP      L**3/T
     ------------------                 ------------------------

           IN:                                      IN:
           ---                                      ---
             STORAGE =        3864.9187               STORAGE =           0.2078
       CONSTANT HEAD =           0.0000         CONSTANT HEAD =           0.0000
       RIVER LEAKAGE =         561.4659         RIVER LEAKAGE =           4.2572
            RECHARGE =        2691.0000              RECHARGE =          14.0000

            TOTAL IN =        7117.3848              TOTAL IN =          18.4649

          OUT:                                     OUT:
          ----                                     ----
             STORAGE =        2563.7766               STORAGE =          15.8117
       CONSTANT HEAD =         579.8224         CONSTANT HEAD =           2.6532
       RIVER LEAKAGE =         182.0350         RIVER LEAKAGE =           0.0000
            RECHARGE =        3791.7500              RECHARGE =           0.0000

           TOTAL OUT =        7117.3843             TOTAL OUT =          18.4649

            IN - OUT =       4.8828E-04              IN - OUT =       3.0518E-05

 PERCENT DISCREPANCY =           0.00     PERCENT DISCREPANCY =           0.00






         TIME SUMMARY AT END OF TIME STEP    1 IN STRESS PERIOD  193
                    SECONDS     MINUTES      HOURS       DAYS        YEARS
                    -----------------------------------------------------------
   TIME STEP LENGTH  86400.      1440.0      24.000      1.0000     2.73785E-03
 STRESS PERIOD TIME  86400.      1440.0      24.000      1.0000     2.73785E-03
         TOTAL TIME 1.66752E+07 2.77920E+05  4632.0      193.00     0.52841    
1
1
                            STRESS PERIOD NO.  194, LENGTH =   1.000000    
                            -----------------------------------------------

                              NUMBER OF TIME STEPS =     1

                               MULTIPLIER FOR DELT =     1.000

                            INITIAL TIME STEP SIZE =   1.000000    

 REUSING NON-PARAMETER RIVER REACHES FROM LAST STRESS PERIOD

      2 RIVER REACHES

                 RECHARGE =  1.680000E-02
 
 SOLVING FOR HEAD 

 OUTPUT CONTROL FOR STRESS PERIOD  194   TIME STEP    1
    SAVE HEAD FOR ALL LAYERS

 HEAD WILL BE SAVED ON UNIT   51 AT END OF TIME STEP    1, STRESS PERIOD  194
1
  VOLUMETRIC BUDGET FOR ENTIRE MODEL AT END OF TIME STEP    1, STRESS PERIOD 194
  ------------------------------------------------------------------------------

     CUMULATIVE VOLUMES      L**3       RATES FOR THIS TIME STEP      L**3/T
     ------------------                 ------------------------

           IN:                                      IN:
           ---                                      ---
             STORAGE =        3865.0247               STORAGE =           0.1061
       CONSTANT HEAD =           0.0000         CONSTANT HEAD =           0.0000
       RIVER LEAKAGE =         561.4659         RIVER LEAKAGE =           0.0000
            RECHARGE =        2859.0000              RECHARGE =         168.0000

            TOTAL IN =        7285.4907              TOTAL IN =         168.1061

          OUT:                                     OUT:
          ----                                     ----
             STORAGE =        2727.7700               STORAGE =         163.9933
       CONSTANT HEAD =         582.4791         CONSTANT HEAD =           2.6566
       RIVER LEAKAGE =         183.4913         RIVER LEAKAGE =           1.4562
            RECHARGE =        3791.7500              RECHARGE =           0.0000

           TOTAL OUT =        7285.4902             TOTAL OUT =         168.1062

            IN - OUT =       4.8828E-04              IN - OUT =      -1.0681E-04

 PERCENT DISCREPANCY =           0.00     PERCENT DISCREPANCY =          -0.00






         TIME SUMMARY AT END OF TIME STEP    1 IN STRESS PERIOD  194
                    SECONDS     MINUTES      HOURS       DAYS        YEARS
                    -----------------------------------------------------------
   TIME STEP LENGTH  86400.      1440.0      24.000      1.0000     2.73785E-03
 STRESS PERIOD TIME  86400.      1440.0      24.000      1.0000     2.73785E-03
         TOTAL TIME 1.67616E+07 2.79360E+05  4656.0      194.00     0.53114    
1
1
                            STRESS PERIOD NO.  195, LENGTH =   1.000000    
                            -----------------------------------------------

                              NUMBER OF TIME STEPS =     1

                               MULTIPLIER FOR DELT =     1.000

                            INITIAL TIME STEP SIZE =   1.000000    

 REUSING NON-PARAMETER RIVER REACHES FROM LAST STRESS PERIOD

      2 RIVER REACHES

                 RECHARGE =  1.090000E-02
 
 SOLVING FOR HEAD 

 OUTPUT CONTROL FOR STRESS PERIOD  195   TIME STEP    1
    SAVE HEAD FOR ALL LAYERS

 HEAD WILL BE SAVED ON UNIT   51 AT END OF TIME STEP    1, STRESS PERIOD  195
1
  VOLUMETRIC BUDGET FOR ENTIRE MODEL AT END OF TIME STEP    1, STRESS PERIOD 195
  ------------------------------------------------------------------------------

     CUMULATIVE VOLUMES      L**3       RATES FOR THIS TIME STEP      L**3/T
     ------------------                 ------------------------

           IN:                                      IN:
           ---                                      ---
             STORAGE =        3865.0774               STORAGE =       5.2796E-02
       CONSTANT HEAD =           0.0000         CONSTANT HEAD =           0.0000
       RIVER LEAKAGE =         561.4659         RIVER LEAKAGE =           0.0000
            RECHARGE =        2968.0000              RECHARGE =         109.0000

            TOTAL IN =        7394.5435              TOTAL IN =         109.0528

          OUT:                                     OUT:
          ----                                     ----
             STORAGE =        2831.1228               STORAGE =         103.3527
       CONSTANT HEAD =         585.1397         CONSTANT HEAD =           2.6606
       RIVER LEAKAGE =         186.5308         RIVER LEAKAGE =           3.0395
            RECHARGE =        3791.7500              RECHARGE =           0.0000

           TOTAL OUT =        7394.5430             TOTAL OUT =         109.0529

            IN - OUT =       4.8828E-04              IN - OUT =      -9.1553E-05

 PERCENT DISCREPANCY =           0.00     PERCENT DISCREPANCY =          -0.00






         TIME SUMMARY AT END OF TIME STEP    1 IN STRESS PERIOD  195
                    SECONDS     MINUTES      HOURS       DAYS        YEARS
                    -----------------------------------------------------------
   TIME STEP LENGTH  86400.      1440.0      24.000      1.0000     2.73785E-03
 STRESS PERIOD TIME  86400.      1440.0      24.000      1.0000     2.73785E-03
         TOTAL TIME 1.68480E+07 2.80800E+05  4680.0      195.00     0.53388    
1
1
                            STRESS PERIOD NO.  196, LENGTH =   1.000000    
                            -----------------------------------------------

                              NUMBER OF TIME STEPS =     1

                               MULTIPLIER FOR DELT =     1.000

                            INITIAL TIME STEP SIZE =   1.000000    

 REUSING NON-PARAMETER RIVER REACHES FROM LAST STRESS PERIOD

      2 RIVER REACHES

                 RECHARGE = -1.100000E-03
 
 SOLVING FOR HEAD 

 OUTPUT CONTROL FOR STRESS PERIOD  196   TIME STEP    1
    SAVE HEAD FOR ALL LAYERS

 HEAD WILL BE SAVED ON UNIT   51 AT END OF TIME STEP    1, STRESS PERIOD  196
1
  VOLUMETRIC BUDGET FOR ENTIRE MODEL AT END OF TIME STEP    1, STRESS PERIOD 196
  ------------------------------------------------------------------------------

     CUMULATIVE VOLUMES      L**3       RATES FOR THIS TIME STEP      L**3/T
     ------------------                 ------------------------

           IN:                                      IN:
           ---                                      ---
             STORAGE =        3879.1685               STORAGE =          14.0909
       CONSTANT HEAD =           0.0000         CONSTANT HEAD =           0.0000
       RIVER LEAKAGE =         561.4659         RIVER LEAKAGE =           0.0000
            RECHARGE =        2968.0000              RECHARGE =           0.0000

            TOTAL IN =        7408.6343              TOTAL IN =          14.0909

          OUT:                                     OUT:
          ----                                     ----
             STORAGE =        2831.1309               STORAGE =       8.0099E-03
       CONSTANT HEAD =         587.8011         CONSTANT HEAD =           2.6615
       RIVER LEAKAGE =         186.9522         RIVER LEAKAGE =           0.4214
            RECHARGE =        3802.7500              RECHARGE =          11.0000

           TOTAL OUT =        7408.6343             TOTAL OUT =          14.0909

            IN - OUT =           0.0000              IN - OUT =       4.1008E-05

 PERCENT DISCREPANCY =           0.00     PERCENT DISCREPANCY =           0.00






         TIME SUMMARY AT END OF TIME STEP    1 IN STRESS PERIOD  196
                    SECONDS     MINUTES      HOURS       DAYS        YEARS
                    -----------------------------------------------------------
   TIME STEP LENGTH  86400.      1440.0      24.000      1.0000     2.73785E-03
 STRESS PERIOD TIME  86400.      1440.0      24.000      1.0000     2.73785E-03
         TOTAL TIME 1.69344E+07 2.82240E+05  4704.0      196.00     0.53662    
1
1
                            STRESS PERIOD NO.  197, LENGTH =   1.000000    
                            -----------------------------------------------

                              NUMBER OF TIME STEPS =     1

                               MULTIPLIER FOR DELT =     1.000

                            INITIAL TIME STEP SIZE =   1.000000    

 REUSING NON-PARAMETER RIVER REACHES FROM LAST STRESS PERIOD

      2 RIVER REACHES

                 RECHARGE =  8.000000E-03
 
 SOLVING FOR HEAD 

 OUTPUT CONTROL FOR STRESS PERIOD  197   TIME STEP    1
    SAVE HEAD FOR ALL LAYERS

 HEAD WILL BE SAVED ON UNIT   51 AT END OF TIME STEP    1, STRESS PERIOD  197
1
  VOLUMETRIC BUDGET FOR ENTIRE MODEL AT END OF TIME STEP    1, STRESS PERIOD 197
  ------------------------------------------------------------------------------

     CUMULATIVE VOLUMES      L**3       RATES FOR THIS TIME STEP      L**3/T
     ------------------                 ------------------------

           IN:                                      IN:
           ---                                      ---
             STORAGE =        3879.1919               STORAGE =       2.3499E-02
       CONSTANT HEAD =           0.0000         CONSTANT HEAD =           0.0000
       RIVER LEAKAGE =         561.4659         RIVER LEAKAGE =           0.0000
            RECHARGE =        3048.0000              RECHARGE =          80.0000

            TOTAL IN =        7488.6577              TOTAL IN =          80.0235

          OUT:                                     OUT:
          ----                                     ----
             STORAGE =        2906.0818               STORAGE =          74.9508
       CONSTANT HEAD =         590.4657         CONSTANT HEAD =           2.6646
       RIVER LEAKAGE =         189.3603         RIVER LEAKAGE =           2.4080
            RECHARGE =        3802.7500              RECHARGE =           0.0000

           TOTAL OUT =        7488.6577             TOTAL OUT =          80.0235

            IN - OUT =           0.0000              IN - OUT =       5.3406E-05

 PERCENT DISCREPANCY =           0.00     PERCENT DISCREPANCY =           0.00






         TIME SUMMARY AT END OF TIME STEP    1 IN STRESS PERIOD  197
                    SECONDS     MINUTES      HOURS       DAYS        YEARS
                    -----------------------------------------------------------
   TIME STEP LENGTH  86400.      1440.0      24.000      1.0000     2.73785E-03
 STRESS PERIOD TIME  86400.      1440.0      24.000      1.0000     2.73785E-03
         TOTAL TIME 1.70208E+07 2.83680E+05  4728.0      197.00     0.53936    
1
1
                            STRESS PERIOD NO.  198, LENGTH =   1.000000    
                            -----------------------------------------------

                              NUMBER OF TIME STEPS =     1

                               MULTIPLIER FOR DELT =     1.000

                            INITIAL TIME STEP SIZE =   1.000000    

 REUSING NON-PARAMETER RIVER REACHES FROM LAST STRESS PERIOD

      2 RIVER REACHES

                 RECHARGE = -2.400000E-03
 
 SOLVING FOR HEAD 

 OUTPUT CONTROL FOR STRESS PERIOD  198   TIME STEP    1
    SAVE HEAD FOR ALL LAYERS

 HEAD WILL BE SAVED ON UNIT   51 AT END OF TIME STEP    1, STRESS PERIOD  198
1
  VOLUMETRIC BUDGET FOR ENTIRE MODEL AT END OF TIME STEP    1, STRESS PERIOD 198
  ------------------------------------------------------------------------------

     CUMULATIVE VOLUMES      L**3       RATES FOR THIS TIME STEP      L**3/T
     ------------------                 ------------------------

           IN:                                      IN:
           ---                                      ---
             STORAGE =        3905.8997               STORAGE =          26.7077
       CONSTANT HEAD =           0.0000         CONSTANT HEAD =           0.0000
       RIVER LEAKAGE =         561.4659         RIVER LEAKAGE =           0.0000
            RECHARGE =        3048.0000              RECHARGE =           0.0000

            TOTAL IN =        7515.3657              TOTAL IN =          26.7077

          OUT:                                     OUT:
          ----                                     ----
             STORAGE =        2906.0930               STORAGE =       1.1286E-02
       CONSTANT HEAD =         593.1307         CONSTANT HEAD =           2.6650
       RIVER LEAKAGE =         189.3917         RIVER LEAKAGE =       3.1392E-02
            RECHARGE =        3826.7500              RECHARGE =          24.0000

           TOTAL OUT =        7515.3652             TOTAL OUT =          26.7077

            IN - OUT =       4.8828E-04              IN - OUT =       2.0981E-05

 PERCENT DISCREPANCY =           0.00     PERCENT DISCREPANCY =           0.00






         TIME SUMMARY AT END OF TIME STEP    1 IN STRESS PERIOD  198
                    SECONDS     MINUTES      HOURS       DAYS        YEARS
                    -----------------------------------------------------------
   TIME STEP LENGTH  86400.      1440.0      24.000      1.0000     2.73785E-03
 STRESS PERIOD TIME  86400.      1440.0      24.000      1.0000     2.73785E-03
         TOTAL TIME 1.71072E+07 2.85120E+05  4752.0      198.00     0.54209    
1
1
                            STRESS PERIOD NO.  199, LENGTH =   1.000000    
                            -----------------------------------------------

                              NUMBER OF TIME STEPS =     1

                               MULTIPLIER FOR DELT =     1.000

                            INITIAL TIME STEP SIZE =   1.000000    

 REUSING NON-PARAMETER RIVER REACHES FROM LAST STRESS PERIOD

      2 RIVER REACHES

                 RECHARGE =  1.050000E-02
 
 SOLVING FOR HEAD 

 OUTPUT CONTROL FOR STRESS PERIOD  199   TIME STEP    1
    SAVE HEAD FOR ALL LAYERS

 HEAD WILL BE SAVED ON UNIT   51 AT END OF TIME STEP    1, STRESS PERIOD  199
1
  VOLUMETRIC BUDGET FOR ENTIRE MODEL AT END OF TIME STEP    1, STRESS PERIOD 199
  ------------------------------------------------------------------------------

     CUMULATIVE VOLUMES      L**3       RATES FOR THIS TIME STEP      L**3/T
     ------------------                 ------------------------

           IN:                                      IN:
           ---                                      ---
             STORAGE =        3905.9014               STORAGE =       1.7557E-03
       CONSTANT HEAD =           0.0000         CONSTANT HEAD =           0.0000
       RIVER LEAKAGE =         561.4659         RIVER LEAKAGE =           0.0000
            RECHARGE =        3153.0000              RECHARGE =         105.0000

            TOTAL IN =        7620.3672              TOTAL IN =         105.0018

          OUT:                                     OUT:
          ----                                     ----
             STORAGE =        3005.1353               STORAGE =          99.0424
       CONSTANT HEAD =         595.7996         CONSTANT HEAD =           2.6690
       RIVER LEAKAGE =         192.6821         RIVER LEAKAGE =           3.2905
            RECHARGE =        3826.7500              RECHARGE =           0.0000

           TOTAL OUT =        7620.3672             TOTAL OUT =         105.0018

            IN - OUT =           0.0000              IN - OUT =      -3.8147E-05

 PERCENT DISCREPANCY =           0.00     PERCENT DISCREPANCY =          -0.00






         TIME SUMMARY AT END OF TIME STEP    1 IN STRESS PERIOD  199
                    SECONDS     MINUTES      HOURS       DAYS        YEARS
                    -----------------------------------------------------------
   TIME STEP LENGTH  86400.      1440.0      24.000      1.0000     2.73785E-03
 STRESS PERIOD TIME  86400.      1440.0      24.000      1.0000     2.73785E-03
         TOTAL TIME 1.71936E+07 2.86560E+05  4776.0      199.00     0.54483    
1
1
                            STRESS PERIOD NO.  200, LENGTH =   1.000000    
                            -----------------------------------------------

                              NUMBER OF TIME STEPS =     1

                               MULTIPLIER FOR DELT =     1.000

                            INITIAL TIME STEP SIZE =   1.000000    

 REUSING NON-PARAMETER RIVER REACHES FROM LAST STRESS PERIOD

      2 RIVER REACHES

                 RECHARGE =  1.970000E-02
 
 SOLVING FOR HEAD 

 OUTPUT CONTROL FOR STRESS PERIOD  200   TIME STEP    1
    SAVE HEAD FOR ALL LAYERS

 HEAD WILL BE SAVED ON UNIT   51 AT END OF TIME STEP    1, STRESS PERIOD  200
1
  VOLUMETRIC BUDGET FOR ENTIRE MODEL AT END OF TIME STEP    1, STRESS PERIOD 200
  ------------------------------------------------------------------------------

     CUMULATIVE VOLUMES      L**3       RATES FOR THIS TIME STEP      L**3/T
     ------------------                 ------------------------

           IN:                                      IN:
           ---                                      ---
             STORAGE =        3905.9014               STORAGE =           0.0000
       CONSTANT HEAD =           0.0000         CONSTANT HEAD =           0.0000
       RIVER LEAKAGE =         561.4659         RIVER LEAKAGE =           0.0000
            RECHARGE =        3350.0000              RECHARGE =         197.0000

            TOTAL IN =        7817.3672              TOTAL IN =         197.0000

          OUT:                                     OUT:
          ----                                     ----
             STORAGE =        3190.9875               STORAGE =         185.8523
       CONSTANT HEAD =         598.4772         CONSTANT HEAD =           2.6776
       RIVER LEAKAGE =         201.1523         RIVER LEAKAGE =           8.4701
            RECHARGE =        3826.7500              RECHARGE =           0.0000

           TOTAL OUT =        7817.3672             TOTAL OUT =         197.0000

            IN - OUT =           0.0000              IN - OUT =           0.0000

 PERCENT DISCREPANCY =           0.00     PERCENT DISCREPANCY =           0.00






         TIME SUMMARY AT END OF TIME STEP    1 IN STRESS PERIOD  200
                    SECONDS     MINUTES      HOURS       DAYS        YEARS
                    -----------------------------------------------------------
   TIME STEP LENGTH  86400.      1440.0      24.000      1.0000     2.73785E-03
 STRESS PERIOD TIME  86400.      1440.0      24.000      1.0000     2.73785E-03
         TOTAL TIME 1.72800E+07 2.88000E+05  4800.0      200.00     0.54757    
1
1
                            STRESS PERIOD NO.  201, LENGTH =   1.000000    
                            -----------------------------------------------

                              NUMBER OF TIME STEPS =     1

                               MULTIPLIER FOR DELT =     1.000

                            INITIAL TIME STEP SIZE =   1.000000    

 REUSING NON-PARAMETER RIVER REACHES FROM LAST STRESS PERIOD

      2 RIVER REACHES

                 RECHARGE =  2.300000E-03
 
 SOLVING FOR HEAD 

 OUTPUT CONTROL FOR STRESS PERIOD  201   TIME STEP    1
    SAVE HEAD FOR ALL LAYERS

 HEAD WILL BE SAVED ON UNIT   51 AT END OF TIME STEP    1, STRESS PERIOD  201
1
  VOLUMETRIC BUDGET FOR ENTIRE MODEL AT END OF TIME STEP    1, STRESS PERIOD 201
  ------------------------------------------------------------------------------

     CUMULATIVE VOLUMES      L**3       RATES FOR THIS TIME STEP      L**3/T
     ------------------                 ------------------------

           IN:                                      IN:
           ---                                      ---
             STORAGE =        3909.4211               STORAGE =           3.5199
       CONSTANT HEAD =           0.0000         CONSTANT HEAD =           0.0000
       RIVER LEAKAGE =         561.4659         RIVER LEAKAGE =           0.0000
            RECHARGE =        3373.0000              RECHARGE =          23.0000

            TOTAL IN =        7843.8872              TOTAL IN =          26.5199

          OUT:                                     OUT:
          ----                                     ----
             STORAGE =        3208.9224               STORAGE =          17.9347
       CONSTANT HEAD =         601.1597         CONSTANT HEAD =           2.6826
       RIVER LEAKAGE =         207.0547         RIVER LEAKAGE =           5.9024
            RECHARGE =        3826.7500              RECHARGE =           0.0000

           TOTAL OUT =        7843.8867             TOTAL OUT =          26.5197

            IN - OUT =       4.8828E-04              IN - OUT =       1.8501E-04

 PERCENT DISCREPANCY =           0.00     PERCENT DISCREPANCY =           0.00






         TIME SUMMARY AT END OF TIME STEP    1 IN STRESS PERIOD  201
                    SECONDS     MINUTES      HOURS       DAYS        YEARS
                    -----------------------------------------------------------
   TIME STEP LENGTH  86400.      1440.0      24.000      1.0000     2.73785E-03
 STRESS PERIOD TIME  86400.      1440.0      24.000      1.0000     2.73785E-03
         TOTAL TIME 1.73664E+07 2.89440E+05  4824.0      201.00     0.55031    
1
1
                            STRESS PERIOD NO.  202, LENGTH =   1.000000    
                            -----------------------------------------------

                              NUMBER OF TIME STEPS =     1

                               MULTIPLIER FOR DELT =     1.000

                            INITIAL TIME STEP SIZE =   1.000000    

 REUSING NON-PARAMETER RIVER REACHES FROM LAST STRESS PERIOD

      2 RIVER REACHES

                 RECHARGE =  1.310000E-02
 
 SOLVING FOR HEAD 

 OUTPUT CONTROL FOR STRESS PERIOD  202   TIME STEP    1
    SAVE HEAD FOR ALL LAYERS

 HEAD WILL BE SAVED ON UNIT   51 AT END OF TIME STEP    1, STRESS PERIOD  202
1
  VOLUMETRIC BUDGET FOR ENTIRE MODEL AT END OF TIME STEP    1, STRESS PERIOD 202
  ------------------------------------------------------------------------------

     CUMULATIVE VOLUMES      L**3       RATES FOR THIS TIME STEP      L**3/T
     ------------------                 ------------------------

           IN:                                      IN:
           ---                                      ---
             STORAGE =        3909.4211               STORAGE =           0.0000
       CONSTANT HEAD =           0.0000         CONSTANT HEAD =           0.0000
       RIVER LEAKAGE =         561.4659         RIVER LEAKAGE =           0.0000
            RECHARGE =        3504.0000              RECHARGE =         131.0000

            TOTAL IN =        7974.8872              TOTAL IN =         131.0000

          OUT:                                     OUT:
          ----                                     ----
             STORAGE =        3328.4863               STORAGE =         119.5640
       CONSTANT HEAD =         603.8503         CONSTANT HEAD =           2.6906
       RIVER LEAKAGE =         215.8002         RIVER LEAKAGE =           8.7455
            RECHARGE =        3826.7500              RECHARGE =           0.0000

           TOTAL OUT =        7974.8867             TOTAL OUT =         131.0001

            IN - OUT =       4.8828E-04              IN - OUT =      -9.1553E-05

 PERCENT DISCREPANCY =           0.00     PERCENT DISCREPANCY =          -0.00






         TIME SUMMARY AT END OF TIME STEP    1 IN STRESS PERIOD  202
                    SECONDS     MINUTES      HOURS       DAYS        YEARS
                    -----------------------------------------------------------
   TIME STEP LENGTH  86400.      1440.0      24.000      1.0000     2.73785E-03
 STRESS PERIOD TIME  86400.      1440.0      24.000      1.0000     2.73785E-03
         TOTAL TIME 1.74528E+07 2.90880E+05  4848.0      202.00     0.55305    
1
1
                            STRESS PERIOD NO.  203, LENGTH =   1.000000    
                            -----------------------------------------------

                              NUMBER OF TIME STEPS =     1

                               MULTIPLIER FOR DELT =     1.000

                            INITIAL TIME STEP SIZE =   1.000000    

 REUSING NON-PARAMETER RIVER REACHES FROM LAST STRESS PERIOD

      2 RIVER REACHES

                 RECHARGE = -1.875000E-03
 
 SOLVING FOR HEAD 

 OUTPUT CONTROL FOR STRESS PERIOD  203   TIME STEP    1
    SAVE HEAD FOR ALL LAYERS

 HEAD WILL BE SAVED ON UNIT   51 AT END OF TIME STEP    1, STRESS PERIOD  203
1
  VOLUMETRIC BUDGET FOR ENTIRE MODEL AT END OF TIME STEP    1, STRESS PERIOD 203
  ------------------------------------------------------------------------------

     CUMULATIVE VOLUMES      L**3       RATES FOR THIS TIME STEP      L**3/T
     ------------------                 ------------------------

           IN:                                      IN:
           ---                                      ---
             STORAGE =        3936.4546               STORAGE =          27.0335
       CONSTANT HEAD =           0.0000         CONSTANT HEAD =           0.0000
       RIVER LEAKAGE =         561.4659         RIVER LEAKAGE =           0.0000
            RECHARGE =        3504.0000              RECHARGE =           0.0000

            TOTAL IN =        8001.9204              TOTAL IN =          27.0335

          OUT:                                     OUT:
          ----                                     ----
             STORAGE =        3328.6985               STORAGE =           0.2122
       CONSTANT HEAD =         606.5449         CONSTANT HEAD =           2.6947
       RIVER LEAKAGE =         221.1766         RIVER LEAKAGE =           5.3764
            RECHARGE =        3845.5000              RECHARGE =          18.7500

           TOTAL OUT =        8001.9199             TOTAL OUT =          27.0333

            IN - OUT =       4.8828E-04              IN - OUT =       1.8311E-04

 PERCENT DISCREPANCY =           0.00     PERCENT DISCREPANCY =           0.00






         TIME SUMMARY AT END OF TIME STEP    1 IN STRESS PERIOD  203
                    SECONDS     MINUTES      HOURS       DAYS        YEARS
                    -----------------------------------------------------------
   TIME STEP LENGTH  86400.      1440.0      24.000      1.0000     2.73785E-03
 STRESS PERIOD TIME  86400.      1440.0      24.000      1.0000     2.73785E-03
         TOTAL TIME 1.75392E+07 2.92320E+05  4872.0      203.00     0.55578    
1
1
                            STRESS PERIOD NO.  204, LENGTH =   1.000000    
                            -----------------------------------------------

                              NUMBER OF TIME STEPS =     1

                               MULTIPLIER FOR DELT =     1.000

                            INITIAL TIME STEP SIZE =   1.000000    

 REUSING NON-PARAMETER RIVER REACHES FROM LAST STRESS PERIOD

      2 RIVER REACHES

                 RECHARGE = -9.000000E-04
 
 SOLVING FOR HEAD 

 OUTPUT CONTROL FOR STRESS PERIOD  204   TIME STEP    1
    SAVE HEAD FOR ALL LAYERS

 HEAD WILL BE SAVED ON UNIT   51 AT END OF TIME STEP    1, STRESS PERIOD  204
1
  VOLUMETRIC BUDGET FOR ENTIRE MODEL AT END OF TIME STEP    1, STRESS PERIOD 204
  ------------------------------------------------------------------------------

     CUMULATIVE VOLUMES      L**3       RATES FOR THIS TIME STEP      L**3/T
     ------------------                 ------------------------

           IN:                                      IN:
           ---                                      ---
             STORAGE =        3952.3533               STORAGE =          15.8987
       CONSTANT HEAD =           0.0000         CONSTANT HEAD =           0.0000
       RIVER LEAKAGE =         561.4659         RIVER LEAKAGE =           0.0000
            RECHARGE =        3504.0000              RECHARGE =           0.0000

            TOTAL IN =        8017.8193              TOTAL IN =          15.8987

          OUT:                                     OUT:
          ----                                     ----
             STORAGE =        3328.8967               STORAGE =           0.1983
       CONSTANT HEAD =         609.2427         CONSTANT HEAD =           2.6978
       RIVER LEAKAGE =         225.1793         RIVER LEAKAGE =           4.0027
            RECHARGE =        3854.5000              RECHARGE =           9.0000

           TOTAL OUT =        8017.8188             TOTAL OUT =          15.8988

            IN - OUT =       4.8828E-04              IN - OUT =      -1.3256E-04

 PERCENT DISCREPANCY =           0.00     PERCENT DISCREPANCY =          -0.00






         TIME SUMMARY AT END OF TIME STEP    1 IN STRESS PERIOD  204
                    SECONDS     MINUTES      HOURS       DAYS        YEARS
                    -----------------------------------------------------------
   TIME STEP LENGTH  86400.      1440.0      24.000      1.0000     2.73785E-03
 STRESS PERIOD TIME  86400.      1440.0      24.000      1.0000     2.73785E-03
         TOTAL TIME 1.76256E+07 2.93760E+05  4896.0      204.00     0.55852    
1
1
                            STRESS PERIOD NO.  205, LENGTH =   1.000000    
                            -----------------------------------------------

                              NUMBER OF TIME STEPS =     1

                               MULTIPLIER FOR DELT =     1.000

                            INITIAL TIME STEP SIZE =   1.000000    

 REUSING NON-PARAMETER RIVER REACHES FROM LAST STRESS PERIOD

      2 RIVER REACHES

                 RECHARGE = -1.575000E-03
 
 SOLVING FOR HEAD 

 OUTPUT CONTROL FOR STRESS PERIOD  205   TIME STEP    1
    SAVE HEAD FOR ALL LAYERS

 HEAD WILL BE SAVED ON UNIT   51 AT END OF TIME STEP    1, STRESS PERIOD  205
1
  VOLUMETRIC BUDGET FOR ENTIRE MODEL AT END OF TIME STEP    1, STRESS PERIOD 205
  ------------------------------------------------------------------------------

     CUMULATIVE VOLUMES      L**3       RATES FOR THIS TIME STEP      L**3/T
     ------------------                 ------------------------

           IN:                                      IN:
           ---                                      ---
             STORAGE =        3973.8120               STORAGE =          21.4589
       CONSTANT HEAD =           0.0000         CONSTANT HEAD =           0.0000
       RIVER LEAKAGE =         561.4659         RIVER LEAKAGE =           0.0000
            RECHARGE =        3504.0000              RECHARGE =           0.0000

            TOTAL IN =        8039.2778              TOTAL IN =          21.4589

          OUT:                                     OUT:
          ----                                     ----
             STORAGE =        3329.0784               STORAGE =           0.1816
       CONSTANT HEAD =         611.9429         CONSTANT HEAD =           2.7001
       RIVER LEAKAGE =         228.0065         RIVER LEAKAGE =           2.8272
            RECHARGE =        3870.2500              RECHARGE =          15.7500

           TOTAL OUT =        8039.2778             TOTAL OUT =          21.4589

            IN - OUT =           0.0000              IN - OUT =      -8.5831E-05

 PERCENT DISCREPANCY =           0.00     PERCENT DISCREPANCY =          -0.00






         TIME SUMMARY AT END OF TIME STEP    1 IN STRESS PERIOD  205
                    SECONDS     MINUTES      HOURS       DAYS        YEARS
                    -----------------------------------------------------------
   TIME STEP LENGTH  86400.      1440.0      24.000      1.0000     2.73785E-03
 STRESS PERIOD TIME  86400.      1440.0      24.000      1.0000     2.73785E-03
         TOTAL TIME 1.77120E+07 2.95200E+05  4920.0      205.00     0.56126    
1
1
                            STRESS PERIOD NO.  206, LENGTH =   1.000000    
                            -----------------------------------------------

                              NUMBER OF TIME STEPS =     1

                               MULTIPLIER FOR DELT =     1.000

                            INITIAL TIME STEP SIZE =   1.000000    

 REUSING NON-PARAMETER RIVER REACHES FROM LAST STRESS PERIOD

      2 RIVER REACHES

                 RECHARGE = -7.000000E-04
 
 SOLVING FOR HEAD 

 OUTPUT CONTROL FOR STRESS PERIOD  206   TIME STEP    1
    SAVE HEAD FOR ALL LAYERS

 HEAD WILL BE SAVED ON UNIT   51 AT END OF TIME STEP    1, STRESS PERIOD  206
1
  VOLUMETRIC BUDGET FOR ENTIRE MODEL AT END OF TIME STEP    1, STRESS PERIOD 206
  ------------------------------------------------------------------------------

     CUMULATIVE VOLUMES      L**3       RATES FOR THIS TIME STEP      L**3/T
     ------------------                 ------------------------

           IN:                                      IN:
           ---                                      ---
             STORAGE =        3985.9663               STORAGE =          12.1544
       CONSTANT HEAD =           0.0000         CONSTANT HEAD =           0.0000
       RIVER LEAKAGE =         561.4659         RIVER LEAKAGE =           0.0000
            RECHARGE =        3504.0000              RECHARGE =           0.0000

            TOTAL IN =        8051.4321              TOTAL IN =          12.1544

          OUT:                                     OUT:
          ----                                     ----
             STORAGE =        3329.2498               STORAGE =           0.1713
       CONSTANT HEAD =         614.6451         CONSTANT HEAD =           2.7022
       RIVER LEAKAGE =         230.2875         RIVER LEAKAGE =           2.2809
            RECHARGE =        3877.2500              RECHARGE =           7.0000

           TOTAL OUT =        8051.4321             TOTAL OUT =          12.1545

            IN - OUT =           0.0000              IN - OUT =      -6.1989E-05

 PERCENT DISCREPANCY =           0.00     PERCENT DISCREPANCY =          -0.00






         TIME SUMMARY AT END OF TIME STEP    1 IN STRESS PERIOD  206
                    SECONDS     MINUTES      HOURS       DAYS        YEARS
                    -----------------------------------------------------------
   TIME STEP LENGTH  86400.      1440.0      24.000      1.0000     2.73785E-03
 STRESS PERIOD TIME  86400.      1440.0      24.000      1.0000     2.73785E-03
         TOTAL TIME 1.77984E+07 2.96640E+05  4944.0      206.00     0.56400    
1
1
                            STRESS PERIOD NO.  207, LENGTH =   1.000000    
                            -----------------------------------------------

                              NUMBER OF TIME STEPS =     1

                               MULTIPLIER FOR DELT =     1.000

                            INITIAL TIME STEP SIZE =   1.000000    

 REUSING NON-PARAMETER RIVER REACHES FROM LAST STRESS PERIOD

      2 RIVER REACHES

                 RECHARGE = -2.000000E-03
 
 SOLVING FOR HEAD 

 OUTPUT CONTROL FOR STRESS PERIOD  207   TIME STEP    1
    SAVE HEAD FOR ALL LAYERS

 HEAD WILL BE SAVED ON UNIT   51 AT END OF TIME STEP    1, STRESS PERIOD  207
1
  VOLUMETRIC BUDGET FOR ENTIRE MODEL AT END OF TIME STEP    1, STRESS PERIOD 207
  ------------------------------------------------------------------------------

     CUMULATIVE VOLUMES      L**3       RATES FOR THIS TIME STEP      L**3/T
     ------------------                 ------------------------

           IN:                                      IN:
           ---                                      ---
             STORAGE =        4010.1658               STORAGE =          24.1995
       CONSTANT HEAD =           0.0000         CONSTANT HEAD =           0.0000
       RIVER LEAKAGE =         561.4659         RIVER LEAKAGE =           0.0000
            RECHARGE =        3504.0000              RECHARGE =           0.0000

            TOTAL IN =        8075.6318              TOTAL IN =          24.1995

          OUT:                                     OUT:
          ----                                     ----
             STORAGE =        3329.4036               STORAGE =           0.1538
       CONSTANT HEAD =         617.3486         CONSTANT HEAD =           2.7035
       RIVER LEAKAGE =         231.6298         RIVER LEAKAGE =           1.3423
            RECHARGE =        3897.2500              RECHARGE =          20.0000

           TOTAL OUT =        8075.6318             TOTAL OUT =          24.1996

            IN - OUT =           0.0000              IN - OUT =      -6.8665E-05

 PERCENT DISCREPANCY =           0.00     PERCENT DISCREPANCY =          -0.00






         TIME SUMMARY AT END OF TIME STEP    1 IN STRESS PERIOD  207
                    SECONDS     MINUTES      HOURS       DAYS        YEARS
                    -----------------------------------------------------------
   TIME STEP LENGTH  86400.      1440.0      24.000      1.0000     2.73785E-03
 STRESS PERIOD TIME  86400.      1440.0      24.000      1.0000     2.73785E-03
         TOTAL TIME 1.78848E+07 2.98080E+05  4968.0      207.00     0.56674    
1
1
                            STRESS PERIOD NO.  208, LENGTH =   1.000000    
                            -----------------------------------------------

                              NUMBER OF TIME STEPS =     1

                               MULTIPLIER FOR DELT =     1.000

                            INITIAL TIME STEP SIZE =   1.000000    

 REUSING NON-PARAMETER RIVER REACHES FROM LAST STRESS PERIOD

      2 RIVER REACHES

                 RECHARGE = -4.000000E-04
 
 SOLVING FOR HEAD 

 OUTPUT CONTROL FOR STRESS PERIOD  208   TIME STEP    1
    SAVE HEAD FOR ALL LAYERS

 HEAD WILL BE SAVED ON UNIT   51 AT END OF TIME STEP    1, STRESS PERIOD  208
1
  VOLUMETRIC BUDGET FOR ENTIRE MODEL AT END OF TIME STEP    1, STRESS PERIOD 208
  ------------------------------------------------------------------------------

     CUMULATIVE VOLUMES      L**3       RATES FOR THIS TIME STEP      L**3/T
     ------------------                 ------------------------

           IN:                                      IN:
           ---                                      ---
             STORAGE =        4018.2234               STORAGE =           8.0575
       CONSTANT HEAD =           0.0000         CONSTANT HEAD =           0.0000
       RIVER LEAKAGE =         561.4659         RIVER LEAKAGE =           0.0000
            RECHARGE =        3504.0000              RECHARGE =           0.0000

            TOTAL IN =        8083.6895              TOTAL IN =           8.0575

          OUT:                                     OUT:
          ----                                     ----
             STORAGE =        3329.5505               STORAGE =           0.1469
       CONSTANT HEAD =         620.0535         CONSTANT HEAD =           2.7049
       RIVER LEAKAGE =         232.8353         RIVER LEAKAGE =           1.2056
            RECHARGE =        3901.2500              RECHARGE =           4.0000

           TOTAL OUT =        8083.6895             TOTAL OUT =           8.0574

            IN - OUT =           0.0000              IN - OUT =       1.6689E-04

 PERCENT DISCREPANCY =           0.00     PERCENT DISCREPANCY =           0.00






         TIME SUMMARY AT END OF TIME STEP    1 IN STRESS PERIOD  208
                    SECONDS     MINUTES      HOURS       DAYS        YEARS
                    -----------------------------------------------------------
   TIME STEP LENGTH  86400.      1440.0      24.000      1.0000     2.73785E-03
 STRESS PERIOD TIME  86400.      1440.0      24.000      1.0000     2.73785E-03
         TOTAL TIME 1.79712E+07 2.99520E+05  4992.0      208.00     0.56947    
1
1
                            STRESS PERIOD NO.  209, LENGTH =   1.000000    
                            -----------------------------------------------

                              NUMBER OF TIME STEPS =     1

                               MULTIPLIER FOR DELT =     1.000

                            INITIAL TIME STEP SIZE =   1.000000    

 REUSING NON-PARAMETER RIVER REACHES FROM LAST STRESS PERIOD

      2 RIVER REACHES

                 RECHARGE = -2.100000E-03
 
 SOLVING FOR HEAD 

 OUTPUT CONTROL FOR STRESS PERIOD  209   TIME STEP    1
    SAVE HEAD FOR ALL LAYERS

 HEAD WILL BE SAVED ON UNIT   51 AT END OF TIME STEP    1, STRESS PERIOD  209
1
  VOLUMETRIC BUDGET FOR ENTIRE MODEL AT END OF TIME STEP    1, STRESS PERIOD 209
  ------------------------------------------------------------------------------

     CUMULATIVE VOLUMES      L**3       RATES FOR THIS TIME STEP      L**3/T
     ------------------                 ------------------------

           IN:                                      IN:
           ---                                      ---
             STORAGE =        4042.4456               STORAGE =          24.2222
       CONSTANT HEAD =           0.0000         CONSTANT HEAD =           0.0000
       RIVER LEAKAGE =         561.4659         RIVER LEAKAGE =           0.0000
            RECHARGE =        3504.0000              RECHARGE =           0.0000

            TOTAL IN =        8107.9116              TOTAL IN =          24.2222

          OUT:                                     OUT:
          ----                                     ----
             STORAGE =        3329.6804               STORAGE =           0.1299
       CONSTANT HEAD =         622.7591         CONSTANT HEAD =           2.7056
       RIVER LEAKAGE =         233.2220         RIVER LEAKAGE =           0.3867
            RECHARGE =        3922.2500              RECHARGE =          21.0000

           TOTAL OUT =        8107.9116             TOTAL OUT =          24.2222

            IN - OUT =           0.0000              IN - OUT =      -8.0109E-05

 PERCENT DISCREPANCY =           0.00     PERCENT DISCREPANCY =          -0.00






         TIME SUMMARY AT END OF TIME STEP    1 IN STRESS PERIOD  209
                    SECONDS     MINUTES      HOURS       DAYS        YEARS
                    -----------------------------------------------------------
   TIME STEP LENGTH  86400.      1440.0      24.000      1.0000     2.73785E-03
 STRESS PERIOD TIME  86400.      1440.0      24.000      1.0000     2.73785E-03
         TOTAL TIME 1.80576E+07 3.00960E+05  5016.0      209.00     0.57221    
1
1
                            STRESS PERIOD NO.  210, LENGTH =   1.000000    
                            -----------------------------------------------

                              NUMBER OF TIME STEPS =     1

                               MULTIPLIER FOR DELT =     1.000

                            INITIAL TIME STEP SIZE =   1.000000    

 REUSING NON-PARAMETER RIVER REACHES FROM LAST STRESS PERIOD

      2 RIVER REACHES

                 RECHARGE = -2.200000E-03
 
 SOLVING FOR HEAD 

 OUTPUT CONTROL FOR STRESS PERIOD  210   TIME STEP    1
    SAVE HEAD FOR ALL LAYERS

 HEAD WILL BE SAVED ON UNIT   51 AT END OF TIME STEP    1, STRESS PERIOD  210
1
  VOLUMETRIC BUDGET FOR ENTIRE MODEL AT END OF TIME STEP    1, STRESS PERIOD 210
  ------------------------------------------------------------------------------

     CUMULATIVE VOLUMES      L**3       RATES FOR THIS TIME STEP      L**3/T
     ------------------                 ------------------------

           IN:                                      IN:
           ---                                      ---
             STORAGE =        4067.0229               STORAGE =          24.5774
       CONSTANT HEAD =           0.0000         CONSTANT HEAD =           0.0000
       RIVER LEAKAGE =         561.7075         RIVER LEAKAGE =           0.2416
            RECHARGE =        3504.0000              RECHARGE =           0.0000

            TOTAL IN =        8132.7305              TOTAL IN =          24.8190

          OUT:                                     OUT:
          ----                                     ----
             STORAGE =        3329.7937               STORAGE =           0.1132
       CONSTANT HEAD =         625.4650         CONSTANT HEAD =           2.7059
       RIVER LEAKAGE =         233.2220         RIVER LEAKAGE =           0.0000
            RECHARGE =        3944.2500              RECHARGE =          22.0000

           TOTAL OUT =        8132.7310             TOTAL OUT =          24.8191

            IN - OUT =      -4.8828E-04              IN - OUT =      -1.3161E-04

 PERCENT DISCREPANCY =          -0.00     PERCENT DISCREPANCY =          -0.00






         TIME SUMMARY AT END OF TIME STEP    1 IN STRESS PERIOD  210
                    SECONDS     MINUTES      HOURS       DAYS        YEARS
                    -----------------------------------------------------------
   TIME STEP LENGTH  86400.      1440.0      24.000      1.0000     2.73785E-03
 STRESS PERIOD TIME  86400.      1440.0      24.000      1.0000     2.73785E-03
         TOTAL TIME 1.81440E+07 3.02400E+05  5040.0      210.00     0.57495    
1
1
                            STRESS PERIOD NO.  211, LENGTH =   1.000000    
                            -----------------------------------------------

                              NUMBER OF TIME STEPS =     1

                               MULTIPLIER FOR DELT =     1.000

                            INITIAL TIME STEP SIZE =   1.000000    

 REUSING NON-PARAMETER RIVER REACHES FROM LAST STRESS PERIOD

      2 RIVER REACHES

                 RECHARGE = -1.200000E-03
 
 SOLVING FOR HEAD 

 OUTPUT CONTROL FOR STRESS PERIOD  211   TIME STEP    1
    SAVE HEAD FOR ALL LAYERS

 HEAD WILL BE SAVED ON UNIT   51 AT END OF TIME STEP    1, STRESS PERIOD  211
1
  VOLUMETRIC BUDGET FOR ENTIRE MODEL AT END OF TIME STEP    1, STRESS PERIOD 211
  ------------------------------------------------------------------------------

     CUMULATIVE VOLUMES      L**3       RATES FOR THIS TIME STEP      L**3/T
     ------------------                 ------------------------

           IN:                                      IN:
           ---                                      ---
             STORAGE =        4081.4238               STORAGE =          14.4010
       CONSTANT HEAD =           0.0000         CONSTANT HEAD =           0.0000
       RIVER LEAKAGE =         562.1160         RIVER LEAKAGE =           0.4085
            RECHARGE =        3504.0000              RECHARGE =           0.0000

            TOTAL IN =        8147.5400              TOTAL IN =          14.8095

          OUT:                                     OUT:
          ----                                     ----
             STORAGE =        3329.8970               STORAGE =           0.1032
       CONSTANT HEAD =         628.1712         CONSTANT HEAD =           2.7062
       RIVER LEAKAGE =         233.2220         RIVER LEAKAGE =           0.0000
            RECHARGE =        3956.2500              RECHARGE =          12.0000

           TOTAL OUT =        8147.5400             TOTAL OUT =          14.8094

            IN - OUT =           0.0000              IN - OUT =       6.2943E-05

 PERCENT DISCREPANCY =           0.00     PERCENT DISCREPANCY =           0.00






         TIME SUMMARY AT END OF TIME STEP    1 IN STRESS PERIOD  211
                    SECONDS     MINUTES      HOURS       DAYS        YEARS
                    -----------------------------------------------------------
   TIME STEP LENGTH  86400.      1440.0      24.000      1.0000     2.73785E-03
 STRESS PERIOD TIME  86400.      1440.0      24.000      1.0000     2.73785E-03
         TOTAL TIME 1.82304E+07 3.03840E+05  5064.0      211.00     0.57769    
1
1
                            STRESS PERIOD NO.  212, LENGTH =   1.000000    
                            -----------------------------------------------

                              NUMBER OF TIME STEPS =     1

                               MULTIPLIER FOR DELT =     1.000

                            INITIAL TIME STEP SIZE =   1.000000    

 REUSING NON-PARAMETER RIVER REACHES FROM LAST STRESS PERIOD

      2 RIVER REACHES

                 RECHARGE = -1.300000E-03
 
 SOLVING FOR HEAD 

 OUTPUT CONTROL FOR STRESS PERIOD  212   TIME STEP    1
    SAVE HEAD FOR ALL LAYERS

 HEAD WILL BE SAVED ON UNIT   51 AT END OF TIME STEP    1, STRESS PERIOD  212
1
  VOLUMETRIC BUDGET FOR ENTIRE MODEL AT END OF TIME STEP    1, STRESS PERIOD 212
  ------------------------------------------------------------------------------

     CUMULATIVE VOLUMES      L**3       RATES FOR THIS TIME STEP      L**3/T
     ------------------                 ------------------------

           IN:                                      IN:
           ---                                      ---
             STORAGE =        4096.5488               STORAGE =          15.1251
       CONSTANT HEAD =           0.0000         CONSTANT HEAD =           0.0000
       RIVER LEAKAGE =         562.7903         RIVER LEAKAGE =           0.6742
            RECHARGE =        3504.0000              RECHARGE =           0.0000

            TOTAL IN =        8163.3389              TOTAL IN =          15.7993

          OUT:                                     OUT:
          ----                                     ----
             STORAGE =        3329.9900               STORAGE =       9.2962E-02
       CONSTANT HEAD =         630.8776         CONSTANT HEAD =           2.7063
       RIVER LEAKAGE =         233.2220         RIVER LEAKAGE =           0.0000
            RECHARGE =        3969.2500              RECHARGE =          13.0000

           TOTAL OUT =        8163.3398             TOTAL OUT =          15.7993

            IN - OUT =      -9.7656E-04              IN - OUT =      -2.5749E-05

 PERCENT DISCREPANCY =          -0.00     PERCENT DISCREPANCY =          -0.00






         TIME SUMMARY AT END OF TIME STEP    1 IN STRESS PERIOD  212
                    SECONDS     MINUTES      HOURS       DAYS        YEARS
                    -----------------------------------------------------------
   TIME STEP LENGTH  86400.      1440.0      24.000      1.0000     2.73785E-03
 STRESS PERIOD TIME  86400.      1440.0      24.000      1.0000     2.73785E-03
         TOTAL TIME 1.83168E+07 3.05280E+05  5088.0      212.00     0.58042    
1
1
                            STRESS PERIOD NO.  213, LENGTH =   1.000000    
                            -----------------------------------------------

                              NUMBER OF TIME STEPS =     1

                               MULTIPLIER FOR DELT =     1.000

                            INITIAL TIME STEP SIZE =   1.000000    

 REUSING NON-PARAMETER RIVER REACHES FROM LAST STRESS PERIOD

      2 RIVER REACHES

                 RECHARGE = -1.800000E-03
 
 SOLVING FOR HEAD 

 OUTPUT CONTROL FOR STRESS PERIOD  213   TIME STEP    1
    SAVE HEAD FOR ALL LAYERS

 HEAD WILL BE SAVED ON UNIT   51 AT END OF TIME STEP    1, STRESS PERIOD  213
1
  VOLUMETRIC BUDGET FOR ENTIRE MODEL AT END OF TIME STEP    1, STRESS PERIOD 213
  ------------------------------------------------------------------------------

     CUMULATIVE VOLUMES      L**3       RATES FOR THIS TIME STEP      L**3/T
     ------------------                 ------------------------

           IN:                                      IN:
           ---                                      ---
             STORAGE =        4116.2334               STORAGE =          19.6846
       CONSTANT HEAD =           0.0000         CONSTANT HEAD =           0.0000
       RIVER LEAKAGE =         563.8920         RIVER LEAKAGE =           1.1018
            RECHARGE =        3504.0000              RECHARGE =           0.0000

            TOTAL IN =        8184.1255              TOTAL IN =          20.7863

          OUT:                                     OUT:
          ----                                     ----
             STORAGE =        3330.0701               STORAGE =       8.0003E-02
       CONSTANT HEAD =         633.5837         CONSTANT HEAD =           2.7062
       RIVER LEAKAGE =         233.2220         RIVER LEAKAGE =           0.0000
            RECHARGE =        3987.2500              RECHARGE =          18.0000

           TOTAL OUT =        8184.1260             TOTAL OUT =          20.7862

            IN - OUT =      -4.8828E-04              IN - OUT =       1.6403E-04

 PERCENT DISCREPANCY =          -0.00     PERCENT DISCREPANCY =           0.00






         TIME SUMMARY AT END OF TIME STEP    1 IN STRESS PERIOD  213
                    SECONDS     MINUTES      HOURS       DAYS        YEARS
                    -----------------------------------------------------------
   TIME STEP LENGTH  86400.      1440.0      24.000      1.0000     2.73785E-03
 STRESS PERIOD TIME  86400.      1440.0      24.000      1.0000     2.73785E-03
         TOTAL TIME 1.84032E+07 3.06720E+05  5112.0      213.00     0.58316    
1
1
                            STRESS PERIOD NO.  214, LENGTH =   1.000000    
                            -----------------------------------------------

                              NUMBER OF TIME STEPS =     1

                               MULTIPLIER FOR DELT =     1.000

                            INITIAL TIME STEP SIZE =   1.000000    

 REUSING NON-PARAMETER RIVER REACHES FROM LAST STRESS PERIOD

      2 RIVER REACHES

                 RECHARGE =   0.00000    
 
 SOLVING FOR HEAD 

 OUTPUT CONTROL FOR STRESS PERIOD  214   TIME STEP    1
    SAVE HEAD FOR ALL LAYERS

 HEAD WILL BE SAVED ON UNIT   51 AT END OF TIME STEP    1, STRESS PERIOD  214
1
  VOLUMETRIC BUDGET FOR ENTIRE MODEL AT END OF TIME STEP    1, STRESS PERIOD 214
  ------------------------------------------------------------------------------

     CUMULATIVE VOLUMES      L**3       RATES FOR THIS TIME STEP      L**3/T
     ------------------                 ------------------------

           IN:                                      IN:
           ---                                      ---
             STORAGE =        4118.5630               STORAGE =           2.3296
       CONSTANT HEAD =           0.0000         CONSTANT HEAD =           0.0000
       RIVER LEAKAGE =         564.7135         RIVER LEAKAGE =           0.8215
            RECHARGE =        3504.0000              RECHARGE =           0.0000

            TOTAL IN =        8187.2764              TOTAL IN =           3.1510

          OUT:                                     OUT:
          ----                                     ----
             STORAGE =        3330.5146               STORAGE =           0.4446
       CONSTANT HEAD =         636.2902         CONSTANT HEAD =           2.7064
       RIVER LEAKAGE =         233.2220         RIVER LEAKAGE =           0.0000
            RECHARGE =        3987.2500              RECHARGE =           0.0000

           TOTAL OUT =        8187.2769             TOTAL OUT =           3.1510

            IN - OUT =      -4.8828E-04              IN - OUT =       1.5974E-05

 PERCENT DISCREPANCY =          -0.00     PERCENT DISCREPANCY =           0.00






         TIME SUMMARY AT END OF TIME STEP    1 IN STRESS PERIOD  214
                    SECONDS     MINUTES      HOURS       DAYS        YEARS
                    -----------------------------------------------------------
   TIME STEP LENGTH  86400.      1440.0      24.000      1.0000     2.73785E-03
 STRESS PERIOD TIME  86400.      1440.0      24.000      1.0000     2.73785E-03
         TOTAL TIME 1.84896E+07 3.08160E+05  5136.0      214.00     0.58590    
1
1
                            STRESS PERIOD NO.  215, LENGTH =   1.000000    
                            -----------------------------------------------

                              NUMBER OF TIME STEPS =     1

                               MULTIPLIER FOR DELT =     1.000

                            INITIAL TIME STEP SIZE =   1.000000    

 REUSING NON-PARAMETER RIVER REACHES FROM LAST STRESS PERIOD

      2 RIVER REACHES

                 RECHARGE =  1.480000E-02
 
 SOLVING FOR HEAD 

 OUTPUT CONTROL FOR STRESS PERIOD  215   TIME STEP    1
    SAVE HEAD FOR ALL LAYERS

 HEAD WILL BE SAVED ON UNIT   51 AT END OF TIME STEP    1, STRESS PERIOD  215
1
  VOLUMETRIC BUDGET FOR ENTIRE MODEL AT END OF TIME STEP    1, STRESS PERIOD 215
  ------------------------------------------------------------------------------

     CUMULATIVE VOLUMES      L**3       RATES FOR THIS TIME STEP      L**3/T
     ------------------                 ------------------------

           IN:                                      IN:
           ---                                      ---
             STORAGE =        4118.5630               STORAGE =           0.0000
       CONSTANT HEAD =           0.0000         CONSTANT HEAD =           0.0000
       RIVER LEAKAGE =         564.7135         RIVER LEAKAGE =           0.0000
            RECHARGE =        3652.0000              RECHARGE =         148.0000

            TOTAL IN =        8335.2764              TOTAL IN =         148.0000

          OUT:                                     OUT:
          ----                                     ----
             STORAGE =        3471.3772               STORAGE =         140.8625
       CONSTANT HEAD =         639.0021         CONSTANT HEAD =           2.7119
       RIVER LEAKAGE =         237.6475         RIVER LEAKAGE =           4.4255
            RECHARGE =        3987.2500              RECHARGE =           0.0000

           TOTAL OUT =        8335.2773             TOTAL OUT =         148.0000

            IN - OUT =      -9.7656E-04              IN - OUT =       1.5259E-05

 PERCENT DISCREPANCY =          -0.00     PERCENT DISCREPANCY =           0.00






         TIME SUMMARY AT END OF TIME STEP    1 IN STRESS PERIOD  215
                    SECONDS     MINUTES      HOURS       DAYS        YEARS
                    -----------------------------------------------------------
   TIME STEP LENGTH  86400.      1440.0      24.000      1.0000     2.73785E-03
 STRESS PERIOD TIME  86400.      1440.0      24.000      1.0000     2.73785E-03
         TOTAL TIME 1.85760E+07 3.09600E+05  5160.0      215.00     0.58864    
1
1
                            STRESS PERIOD NO.  216, LENGTH =   1.000000    
                            -----------------------------------------------

                              NUMBER OF TIME STEPS =     1

                               MULTIPLIER FOR DELT =     1.000

                            INITIAL TIME STEP SIZE =   1.000000    

 REUSING NON-PARAMETER RIVER REACHES FROM LAST STRESS PERIOD

      2 RIVER REACHES

                 RECHARGE =  1.900000E-03
 
 SOLVING FOR HEAD 

 OUTPUT CONTROL FOR STRESS PERIOD  216   TIME STEP    1
    SAVE HEAD FOR ALL LAYERS

 HEAD WILL BE SAVED ON UNIT   51 AT END OF TIME STEP    1, STRESS PERIOD  216
1
  VOLUMETRIC BUDGET FOR ENTIRE MODEL AT END OF TIME STEP    1, STRESS PERIOD 216
  ------------------------------------------------------------------------------

     CUMULATIVE VOLUMES      L**3       RATES FOR THIS TIME STEP      L**3/T
     ------------------                 ------------------------

           IN:                                      IN:
           ---                                      ---
             STORAGE =        4119.4575               STORAGE =           0.8946
       CONSTANT HEAD =           0.0000         CONSTANT HEAD =           0.0000
       RIVER LEAKAGE =         564.7135         RIVER LEAKAGE =           0.0000
            RECHARGE =        3671.0000              RECHARGE =          19.0000

            TOTAL IN =        8355.1709              TOTAL IN =          19.8946

          OUT:                                     OUT:
          ----                                     ----
             STORAGE =        3485.3960               STORAGE =          14.0189
       CONSTANT HEAD =         641.7173         CONSTANT HEAD =           2.7152
       RIVER LEAKAGE =         240.8082         RIVER LEAKAGE =           3.1606
            RECHARGE =        3987.2500              RECHARGE =           0.0000

           TOTAL OUT =        8355.1719             TOTAL OUT =          19.8947

            IN - OUT =      -9.7656E-04              IN - OUT =      -1.0300E-04

 PERCENT DISCREPANCY =          -0.00     PERCENT DISCREPANCY =          -0.00






         TIME SUMMARY AT END OF TIME STEP    1 IN STRESS PERIOD  216
                    SECONDS     MINUTES      HOURS       DAYS        YEARS
                    -----------------------------------------------------------
   TIME STEP LENGTH  86400.      1440.0      24.000      1.0000     2.73785E-03
 STRESS PERIOD TIME  86400.      1440.0      24.000      1.0000     2.73785E-03
         TOTAL TIME 1.86624E+07 3.11040E+05  5184.0      216.00     0.59138    
1
1
                            STRESS PERIOD NO.  217, LENGTH =   1.000000    
                            -----------------------------------------------

                              NUMBER OF TIME STEPS =     1

                               MULTIPLIER FOR DELT =     1.000

                            INITIAL TIME STEP SIZE =   1.000000    

 REUSING NON-PARAMETER RIVER REACHES FROM LAST STRESS PERIOD

      2 RIVER REACHES

                 RECHARGE = -1.175000E-03
 
 SOLVING FOR HEAD 

 OUTPUT CONTROL FOR STRESS PERIOD  217   TIME STEP    1
    SAVE HEAD FOR ALL LAYERS

 HEAD WILL BE SAVED ON UNIT   51 AT END OF TIME STEP    1, STRESS PERIOD  217
1
  VOLUMETRIC BUDGET FOR ENTIRE MODEL AT END OF TIME STEP    1, STRESS PERIOD 217
  ------------------------------------------------------------------------------

     CUMULATIVE VOLUMES      L**3       RATES FOR THIS TIME STEP      L**3/T
     ------------------                 ------------------------

           IN:                                      IN:
           ---                                      ---
             STORAGE =        4135.8506               STORAGE =          16.3929
       CONSTANT HEAD =           0.0000         CONSTANT HEAD =           0.0000
       RIVER LEAKAGE =         564.7135         RIVER LEAKAGE =           0.0000
            RECHARGE =        3671.0000              RECHARGE =           0.0000

            TOTAL IN =        8371.5645              TOTAL IN =          16.3929

          OUT:                                     OUT:
          ----                                     ----
             STORAGE =        3485.5547               STORAGE =           0.1588
       CONSTANT HEAD =         644.4344         CONSTANT HEAD =           2.7172
       RIVER LEAKAGE =         242.5749         RIVER LEAKAGE =           1.7668
            RECHARGE =        3999.0000              RECHARGE =          11.7500

           TOTAL OUT =        8371.5645             TOTAL OUT =          16.3927

            IN - OUT =           0.0000              IN - OUT =       1.9455E-04

 PERCENT DISCREPANCY =           0.00     PERCENT DISCREPANCY =           0.00






         TIME SUMMARY AT END OF TIME STEP    1 IN STRESS PERIOD  217
                    SECONDS     MINUTES      HOURS       DAYS        YEARS
                    -----------------------------------------------------------
   TIME STEP LENGTH  86400.      1440.0      24.000      1.0000     2.73785E-03
 STRESS PERIOD TIME  86400.      1440.0      24.000      1.0000     2.73785E-03
         TOTAL TIME 1.87488E+07 3.12480E+05  5208.0      217.00     0.59411    
1
1
                            STRESS PERIOD NO.  218, LENGTH =   1.000000    
                            -----------------------------------------------

                              NUMBER OF TIME STEPS =     1

                               MULTIPLIER FOR DELT =     1.000

                            INITIAL TIME STEP SIZE =   1.000000    

 REUSING NON-PARAMETER RIVER REACHES FROM LAST STRESS PERIOD

      2 RIVER REACHES

                 RECHARGE = -5.000000E-04
 
 SOLVING FOR HEAD 

 OUTPUT CONTROL FOR STRESS PERIOD  218   TIME STEP    1
    SAVE HEAD FOR ALL LAYERS

 HEAD WILL BE SAVED ON UNIT   51 AT END OF TIME STEP    1, STRESS PERIOD  218
1
  VOLUMETRIC BUDGET FOR ENTIRE MODEL AT END OF TIME STEP    1, STRESS PERIOD 218
  ------------------------------------------------------------------------------

     CUMULATIVE VOLUMES      L**3       RATES FOR THIS TIME STEP      L**3/T
     ------------------                 ------------------------

           IN:                                      IN:
           ---                                      ---
             STORAGE =        4144.9624               STORAGE =           9.1117
       CONSTANT HEAD =           0.0000         CONSTANT HEAD =           0.0000
       RIVER LEAKAGE =         564.7135         RIVER LEAKAGE =           0.0000
            RECHARGE =        3671.0000              RECHARGE =           0.0000

            TOTAL IN =        8380.6758              TOTAL IN =           9.1117

          OUT:                                     OUT:
          ----                                     ----
             STORAGE =        3485.7056               STORAGE =           0.1510
       CONSTANT HEAD =         647.1533         CONSTANT HEAD =           2.7188
       RIVER LEAKAGE =         243.8167         RIVER LEAKAGE =           1.2418
            RECHARGE =        4004.0000              RECHARGE =           5.0000

           TOTAL OUT =        8380.6758             TOTAL OUT =           9.1116

            IN - OUT =           0.0000              IN - OUT =       1.2779E-04

 PERCENT DISCREPANCY =           0.00     PERCENT DISCREPANCY =           0.00






         TIME SUMMARY AT END OF TIME STEP    1 IN STRESS PERIOD  218
                    SECONDS     MINUTES      HOURS       DAYS        YEARS
                    -----------------------------------------------------------
   TIME STEP LENGTH  86400.      1440.0      24.000      1.0000     2.73785E-03
 STRESS PERIOD TIME  86400.      1440.0      24.000      1.0000     2.73785E-03
         TOTAL TIME 1.88352E+07 3.13920E+05  5232.0      218.00     0.59685    
1
1
                            STRESS PERIOD NO.  219, LENGTH =   1.000000    
                            -----------------------------------------------

                              NUMBER OF TIME STEPS =     1

                               MULTIPLIER FOR DELT =     1.000

                            INITIAL TIME STEP SIZE =   1.000000    

 REUSING NON-PARAMETER RIVER REACHES FROM LAST STRESS PERIOD

      2 RIVER REACHES

                 RECHARGE =  2.000000E-04
 
 SOLVING FOR HEAD 

 OUTPUT CONTROL FOR STRESS PERIOD  219   TIME STEP    1
    SAVE HEAD FOR ALL LAYERS

 HEAD WILL BE SAVED ON UNIT   51 AT END OF TIME STEP    1, STRESS PERIOD  219
1
  VOLUMETRIC BUDGET FOR ENTIRE MODEL AT END OF TIME STEP    1, STRESS PERIOD 219
  ------------------------------------------------------------------------------

     CUMULATIVE VOLUMES      L**3       RATES FOR THIS TIME STEP      L**3/T
     ------------------                 ------------------------

           IN:                                      IN:
           ---                                      ---
             STORAGE =        4147.5781               STORAGE =           2.6159
       CONSTANT HEAD =           0.0000         CONSTANT HEAD =           0.0000
       RIVER LEAKAGE =         564.7135         RIVER LEAKAGE =           0.0000
            RECHARGE =        3673.0000              RECHARGE =           2.0000

            TOTAL IN =        8385.2910              TOTAL IN =           4.6159

          OUT:                                     OUT:
          ----                                     ----
             STORAGE =        3486.4946               STORAGE =           0.7892
       CONSTANT HEAD =         649.8737         CONSTANT HEAD =           2.7204
       RIVER LEAKAGE =         244.9229         RIVER LEAKAGE =           1.1062
            RECHARGE =        4004.0000              RECHARGE =           0.0000

           TOTAL OUT =        8385.2910             TOTAL OUT =           4.6158

            IN - OUT =           0.0000              IN - OUT =       1.1587E-04

 PERCENT DISCREPANCY =           0.00     PERCENT DISCREPANCY =           0.00






         TIME SUMMARY AT END OF TIME STEP    1 IN STRESS PERIOD  219
                    SECONDS     MINUTES      HOURS       DAYS        YEARS
                    -----------------------------------------------------------
   TIME STEP LENGTH  86400.      1440.0      24.000      1.0000     2.73785E-03
 STRESS PERIOD TIME  86400.      1440.0      24.000      1.0000     2.73785E-03
         TOTAL TIME 1.89216E+07 3.15360E+05  5256.0      219.00     0.59959    
1
1
                            STRESS PERIOD NO.  220, LENGTH =   1.000000    
                            -----------------------------------------------

                              NUMBER OF TIME STEPS =     1

                               MULTIPLIER FOR DELT =     1.000

                            INITIAL TIME STEP SIZE =   1.000000    

 REUSING NON-PARAMETER RIVER REACHES FROM LAST STRESS PERIOD

      2 RIVER REACHES

                 RECHARGE =  1.900000E-03
 
 SOLVING FOR HEAD 

 OUTPUT CONTROL FOR STRESS PERIOD  220   TIME STEP    1
    SAVE HEAD FOR ALL LAYERS

 HEAD WILL BE SAVED ON UNIT   51 AT END OF TIME STEP    1, STRESS PERIOD  220
1
  VOLUMETRIC BUDGET FOR ENTIRE MODEL AT END OF TIME STEP    1, STRESS PERIOD 220
  ------------------------------------------------------------------------------

     CUMULATIVE VOLUMES      L**3       RATES FOR THIS TIME STEP      L**3/T
     ------------------                 ------------------------

           IN:                                      IN:
           ---                                      ---
             STORAGE =        4147.5781               STORAGE =           0.0000
       CONSTANT HEAD =           0.0000         CONSTANT HEAD =           0.0000
       RIVER LEAKAGE =         564.7135         RIVER LEAKAGE =           0.0000
            RECHARGE =        3692.0000              RECHARGE =          19.0000

            TOTAL IN =        8404.2910              TOTAL IN =          19.0000

          OUT:                                     OUT:
          ----                                     ----
             STORAGE =        3501.2148               STORAGE =          14.7203
       CONSTANT HEAD =         652.5963         CONSTANT HEAD =           2.7226
       RIVER LEAKAGE =         246.4802         RIVER LEAKAGE =           1.5573
            RECHARGE =        4004.0000              RECHARGE =           0.0000

           TOTAL OUT =        8404.2910             TOTAL OUT =          19.0001

            IN - OUT =           0.0000              IN - OUT =      -1.1253E-04

 PERCENT DISCREPANCY =           0.00     PERCENT DISCREPANCY =          -0.00






         TIME SUMMARY AT END OF TIME STEP    1 IN STRESS PERIOD  220
                    SECONDS     MINUTES      HOURS       DAYS        YEARS
                    -----------------------------------------------------------
   TIME STEP LENGTH  86400.      1440.0      24.000      1.0000     2.73785E-03
 STRESS PERIOD TIME  86400.      1440.0      24.000      1.0000     2.73785E-03
         TOTAL TIME 1.90080E+07 3.16800E+05  5280.0      220.00     0.60233    
1
1
                            STRESS PERIOD NO.  221, LENGTH =   1.000000    
                            -----------------------------------------------

                              NUMBER OF TIME STEPS =     1

                               MULTIPLIER FOR DELT =     1.000

                            INITIAL TIME STEP SIZE =   1.000000    

 REUSING NON-PARAMETER RIVER REACHES FROM LAST STRESS PERIOD

      2 RIVER REACHES

                 RECHARGE =  2.390000E-02
 
 SOLVING FOR HEAD 

 OUTPUT CONTROL FOR STRESS PERIOD  221   TIME STEP    1
    SAVE HEAD FOR ALL LAYERS

 HEAD WILL BE SAVED ON UNIT   51 AT END OF TIME STEP    1, STRESS PERIOD  221
1
  VOLUMETRIC BUDGET FOR ENTIRE MODEL AT END OF TIME STEP    1, STRESS PERIOD 221
  ------------------------------------------------------------------------------

     CUMULATIVE VOLUMES      L**3       RATES FOR THIS TIME STEP      L**3/T
     ------------------                 ------------------------

           IN:                                      IN:
           ---                                      ---
             STORAGE =        4147.5781               STORAGE =           0.0000
       CONSTANT HEAD =           0.0000         CONSTANT HEAD =           0.0000
       RIVER LEAKAGE =         564.7135         RIVER LEAKAGE =           0.0000
            RECHARGE =        3931.0000              RECHARGE =         239.0000

            TOTAL IN =        8643.2910              TOTAL IN =         239.0000

          OUT:                                     OUT:
          ----                                     ----
             STORAGE =        3727.9702               STORAGE =         226.7554
       CONSTANT HEAD =         655.3289         CONSTANT HEAD =           2.7326
       RIVER LEAKAGE =         255.9920         RIVER LEAKAGE =           9.5119
            RECHARGE =        4004.0000              RECHARGE =           0.0000

           TOTAL OUT =        8643.2910             TOTAL OUT =         238.9999

            IN - OUT =           0.0000              IN - OUT =       1.0681E-04

 PERCENT DISCREPANCY =           0.00     PERCENT DISCREPANCY =           0.00






         TIME SUMMARY AT END OF TIME STEP    1 IN STRESS PERIOD  221
                    SECONDS     MINUTES      HOURS       DAYS        YEARS
                    -----------------------------------------------------------
   TIME STEP LENGTH  86400.      1440.0      24.000      1.0000     2.73785E-03
 STRESS PERIOD TIME  86400.      1440.0      24.000      1.0000     2.73785E-03
         TOTAL TIME 1.90944E+07 3.18240E+05  5304.0      221.00     0.60507    
1
1
                            STRESS PERIOD NO.  222, LENGTH =   1.000000    
                            -----------------------------------------------

                              NUMBER OF TIME STEPS =     1

                               MULTIPLIER FOR DELT =     1.000

                            INITIAL TIME STEP SIZE =   1.000000    

 REUSING NON-PARAMETER RIVER REACHES FROM LAST STRESS PERIOD

      2 RIVER REACHES

                 RECHARGE =  1.800000E-03
 
 SOLVING FOR HEAD 

 OUTPUT CONTROL FOR STRESS PERIOD  222   TIME STEP    1
    SAVE HEAD FOR ALL LAYERS

 HEAD WILL BE SAVED ON UNIT   51 AT END OF TIME STEP    1, STRESS PERIOD  222
1
  VOLUMETRIC BUDGET FOR ENTIRE MODEL AT END OF TIME STEP    1, STRESS PERIOD 222
  ------------------------------------------------------------------------------

     CUMULATIVE VOLUMES      L**3       RATES FOR THIS TIME STEP      L**3/T
     ------------------                 ------------------------

           IN:                                      IN:
           ---                                      ---
             STORAGE =        4150.9731               STORAGE =           3.3949
       CONSTANT HEAD =           0.0000         CONSTANT HEAD =           0.0000
       RIVER LEAKAGE =         564.7135         RIVER LEAKAGE =           0.0000
            RECHARGE =        3949.0000              RECHARGE =          18.0000

            TOTAL IN =        8664.6865              TOTAL IN =          21.3949

          OUT:                                     OUT:
          ----                                     ----
             STORAGE =        3739.8735               STORAGE =          11.9034
       CONSTANT HEAD =         658.0673         CONSTANT HEAD =           2.7384
       RIVER LEAKAGE =         262.7452         RIVER LEAKAGE =           6.7532
            RECHARGE =        4004.0000              RECHARGE =           0.0000

           TOTAL OUT =        8664.6855             TOTAL OUT =          21.3950

            IN - OUT =       9.7656E-04              IN - OUT =      -1.6594E-04

 PERCENT DISCREPANCY =           0.00     PERCENT DISCREPANCY =          -0.00






         TIME SUMMARY AT END OF TIME STEP    1 IN STRESS PERIOD  222
                    SECONDS     MINUTES      HOURS       DAYS        YEARS
                    -----------------------------------------------------------
   TIME STEP LENGTH  86400.      1440.0      24.000      1.0000     2.73785E-03
 STRESS PERIOD TIME  86400.      1440.0      24.000      1.0000     2.73785E-03
         TOTAL TIME 1.91808E+07 3.19680E+05  5328.0      222.00     0.60780    
1
1
                            STRESS PERIOD NO.  223, LENGTH =   1.000000    
                            -----------------------------------------------

                              NUMBER OF TIME STEPS =     1

                               MULTIPLIER FOR DELT =     1.000

                            INITIAL TIME STEP SIZE =   1.000000    

 REUSING NON-PARAMETER RIVER REACHES FROM LAST STRESS PERIOD

      2 RIVER REACHES

                 RECHARGE =  1.560000E-02
 
 SOLVING FOR HEAD 

 OUTPUT CONTROL FOR STRESS PERIOD  223   TIME STEP    1
    SAVE HEAD FOR ALL LAYERS

 HEAD WILL BE SAVED ON UNIT   51 AT END OF TIME STEP    1, STRESS PERIOD  223
1
  VOLUMETRIC BUDGET FOR ENTIRE MODEL AT END OF TIME STEP    1, STRESS PERIOD 223
  ------------------------------------------------------------------------------

     CUMULATIVE VOLUMES      L**3       RATES FOR THIS TIME STEP      L**3/T
     ------------------                 ------------------------

           IN:                                      IN:
           ---                                      ---
             STORAGE =        4150.9731               STORAGE =           0.0000
       CONSTANT HEAD =           0.0000         CONSTANT HEAD =           0.0000
       RIVER LEAKAGE =         564.7135         RIVER LEAKAGE =           0.0000
            RECHARGE =        4105.0000              RECHARGE =         156.0000

            TOTAL IN =        8820.6865              TOTAL IN =         156.0000

          OUT:                                     OUT:
          ----                                     ----
             STORAGE =        3882.4753               STORAGE =         142.6019
       CONSTANT HEAD =         660.8155         CONSTANT HEAD =           2.7483
       RIVER LEAKAGE =         273.3953         RIVER LEAKAGE =          10.6501
            RECHARGE =        4004.0000              RECHARGE =           0.0000

           TOTAL OUT =        8820.6865             TOTAL OUT =         156.0002

            IN - OUT =           0.0000              IN - OUT =      -2.1362E-04

 PERCENT DISCREPANCY =           0.00     PERCENT DISCREPANCY =          -0.00






         TIME SUMMARY AT END OF TIME STEP    1 IN STRESS PERIOD  223
                    SECONDS     MINUTES      HOURS       DAYS        YEARS
                    -----------------------------------------------------------
   TIME STEP LENGTH  86400.      1440.0      24.000      1.0000     2.73785E-03
 STRESS PERIOD TIME  86400.      1440.0      24.000      1.0000     2.73785E-03
         TOTAL TIME 1.92672E+07 3.21120E+05  5352.0      223.00     0.61054    
1
1
                            STRESS PERIOD NO.  224, LENGTH =   1.000000    
                            -----------------------------------------------

                              NUMBER OF TIME STEPS =     1

                               MULTIPLIER FOR DELT =     1.000

                            INITIAL TIME STEP SIZE =   1.000000    

 REUSING NON-PARAMETER RIVER REACHES FROM LAST STRESS PERIOD

      2 RIVER REACHES

                 RECHARGE = -8.000000E-04
 
 SOLVING FOR HEAD 

 OUTPUT CONTROL FOR STRESS PERIOD  224   TIME STEP    1
    SAVE HEAD FOR ALL LAYERS

 HEAD WILL BE SAVED ON UNIT   51 AT END OF TIME STEP    1, STRESS PERIOD  224
1
  VOLUMETRIC BUDGET FOR ENTIRE MODEL AT END OF TIME STEP    1, STRESS PERIOD 224
  ------------------------------------------------------------------------------

     CUMULATIVE VOLUMES      L**3       RATES FOR THIS TIME STEP      L**3/T
     ------------------                 ------------------------

           IN:                                      IN:
           ---                                      ---
             STORAGE =        4169.5273               STORAGE =          18.5541
       CONSTANT HEAD =           0.0000         CONSTANT HEAD =           0.0000
       RIVER LEAKAGE =         564.7135         RIVER LEAKAGE =           0.0000
            RECHARGE =        4105.0000              RECHARGE =           0.0000

            TOTAL IN =        8839.2402              TOTAL IN =          18.5541

          OUT:                                     OUT:
          ----                                     ----
             STORAGE =        3882.8372               STORAGE =           0.3618
       CONSTANT HEAD =         663.5696         CONSTANT HEAD =           2.7542
       RIVER LEAKAGE =         280.8335         RIVER LEAKAGE =           7.4382
            RECHARGE =        4012.0000              RECHARGE =           8.0000

           TOTAL OUT =        8839.2402             TOTAL OUT =          18.5542

            IN - OUT =           0.0000              IN - OUT =      -8.2016E-05

 PERCENT DISCREPANCY =           0.00     PERCENT DISCREPANCY =          -0.00






         TIME SUMMARY AT END OF TIME STEP    1 IN STRESS PERIOD  224
                    SECONDS     MINUTES      HOURS       DAYS        YEARS
                    -----------------------------------------------------------
   TIME STEP LENGTH  86400.      1440.0      24.000      1.0000     2.73785E-03
 STRESS PERIOD TIME  86400.      1440.0      24.000      1.0000     2.73785E-03
         TOTAL TIME 1.93536E+07 3.22560E+05  5376.0      224.00     0.61328    
1
1
                            STRESS PERIOD NO.  225, LENGTH =   1.000000    
                            -----------------------------------------------

                              NUMBER OF TIME STEPS =     1

                               MULTIPLIER FOR DELT =     1.000

                            INITIAL TIME STEP SIZE =   1.000000    

 REUSING NON-PARAMETER RIVER REACHES FROM LAST STRESS PERIOD

      2 RIVER REACHES

                 RECHARGE =  1.020000E-02
 
 SOLVING FOR HEAD 

 OUTPUT CONTROL FOR STRESS PERIOD  225   TIME STEP    1
    SAVE HEAD FOR ALL LAYERS

 HEAD WILL BE SAVED ON UNIT   51 AT END OF TIME STEP    1, STRESS PERIOD  225
1
  VOLUMETRIC BUDGET FOR ENTIRE MODEL AT END OF TIME STEP    1, STRESS PERIOD 225
  ------------------------------------------------------------------------------

     CUMULATIVE VOLUMES      L**3       RATES FOR THIS TIME STEP      L**3/T
     ------------------                 ------------------------

           IN:                                      IN:
           ---                                      ---
             STORAGE =        4169.5273               STORAGE =           0.0000
       CONSTANT HEAD =           0.0000         CONSTANT HEAD =           0.0000
       RIVER LEAKAGE =         564.7135         RIVER LEAKAGE =           0.0000
            RECHARGE =        4207.0000              RECHARGE =         102.0000

            TOTAL IN =        8941.2402              TOTAL IN =         102.0000

          OUT:                                     OUT:
          ----                                     ----
             STORAGE =        3972.2910               STORAGE =          89.4538
       CONSTANT HEAD =         666.3324         CONSTANT HEAD =           2.7627
       RIVER LEAKAGE =         290.6172         RIVER LEAKAGE =           9.7837
            RECHARGE =        4012.0000              RECHARGE =           0.0000

           TOTAL OUT =        8941.2402             TOTAL OUT =         102.0002

            IN - OUT =           0.0000              IN - OUT =      -2.2125E-04

 PERCENT DISCREPANCY =           0.00     PERCENT DISCREPANCY =          -0.00






         TIME SUMMARY AT END OF TIME STEP    1 IN STRESS PERIOD  225
                    SECONDS     MINUTES      HOURS       DAYS        YEARS
                    -----------------------------------------------------------
   TIME STEP LENGTH  86400.      1440.0      24.000      1.0000     2.73785E-03
 STRESS PERIOD TIME  86400.      1440.0      24.000      1.0000     2.73785E-03
         TOTAL TIME 1.94400E+07 3.24000E+05  5400.0      225.00     0.61602    
1
1
                            STRESS PERIOD NO.  226, LENGTH =   1.000000    
                            -----------------------------------------------

                              NUMBER OF TIME STEPS =     1

                               MULTIPLIER FOR DELT =     1.000

                            INITIAL TIME STEP SIZE =   1.000000    

 REUSING NON-PARAMETER RIVER REACHES FROM LAST STRESS PERIOD

      2 RIVER REACHES

                 RECHARGE = -3.000000E-04
 
 SOLVING FOR HEAD 

 OUTPUT CONTROL FOR STRESS PERIOD  226   TIME STEP    1
    SAVE HEAD FOR ALL LAYERS

 HEAD WILL BE SAVED ON UNIT   51 AT END OF TIME STEP    1, STRESS PERIOD  226
1
  VOLUMETRIC BUDGET FOR ENTIRE MODEL AT END OF TIME STEP    1, STRESS PERIOD 226
  ------------------------------------------------------------------------------

     CUMULATIVE VOLUMES      L**3       RATES FOR THIS TIME STEP      L**3/T
     ------------------                 ------------------------

           IN:                                      IN:
           ---                                      ---
             STORAGE =        4183.2163               STORAGE =          13.6890
       CONSTANT HEAD =           0.0000         CONSTANT HEAD =           0.0000
       RIVER LEAKAGE =         564.7135         RIVER LEAKAGE =           0.0000
            RECHARGE =        4207.0000              RECHARGE =           0.0000

            TOTAL IN =        8954.9297              TOTAL IN =          13.6890

          OUT:                                     OUT:
          ----                                     ----
             STORAGE =        3972.6880               STORAGE =           0.3970
       CONSTANT HEAD =         669.1011         CONSTANT HEAD =           2.7687
       RIVER LEAKAGE =         298.1408         RIVER LEAKAGE =           7.5236
            RECHARGE =        4015.0000              RECHARGE =           3.0000

           TOTAL OUT =        8954.9297             TOTAL OUT =          13.6892

            IN - OUT =           0.0000              IN - OUT =      -1.9741E-04

 PERCENT DISCREPANCY =           0.00     PERCENT DISCREPANCY =          -0.00






         TIME SUMMARY AT END OF TIME STEP    1 IN STRESS PERIOD  226
                    SECONDS     MINUTES      HOURS       DAYS        YEARS
                    -----------------------------------------------------------
   TIME STEP LENGTH  86400.      1440.0      24.000      1.0000     2.73785E-03
 STRESS PERIOD TIME  86400.      1440.0      24.000      1.0000     2.73785E-03
         TOTAL TIME 1.95264E+07 3.25440E+05  5424.0      226.00     0.61875    
1
1
                            STRESS PERIOD NO.  227, LENGTH =   1.000000    
                            -----------------------------------------------

                              NUMBER OF TIME STEPS =     1

                               MULTIPLIER FOR DELT =     1.000

                            INITIAL TIME STEP SIZE =   1.000000    

 REUSING NON-PARAMETER RIVER REACHES FROM LAST STRESS PERIOD

      2 RIVER REACHES

                 RECHARGE = -5.000000E-04
 
 SOLVING FOR HEAD 

 OUTPUT CONTROL FOR STRESS PERIOD  227   TIME STEP    1
    SAVE HEAD FOR ALL LAYERS

 HEAD WILL BE SAVED ON UNIT   51 AT END OF TIME STEP    1, STRESS PERIOD  227
1
  VOLUMETRIC BUDGET FOR ENTIRE MODEL AT END OF TIME STEP    1, STRESS PERIOD 227
  ------------------------------------------------------------------------------

     CUMULATIVE VOLUMES      L**3       RATES FOR THIS TIME STEP      L**3/T
     ------------------                 ------------------------

           IN:                                      IN:
           ---                                      ---
             STORAGE =        4197.6699               STORAGE =          14.4535
       CONSTANT HEAD =           0.0000         CONSTANT HEAD =           0.0000
       RIVER LEAKAGE =         564.7135         RIVER LEAKAGE =           0.0000
            RECHARGE =        4207.0000              RECHARGE =           0.0000

            TOTAL IN =        8969.3828              TOTAL IN =          14.4535

          OUT:                                     OUT:
          ----                                     ----
             STORAGE =        3973.0701               STORAGE =           0.3821
       CONSTANT HEAD =         671.8748         CONSTANT HEAD =           2.7737
       RIVER LEAKAGE =         304.4384         RIVER LEAKAGE =           6.2976
            RECHARGE =        4020.0000              RECHARGE =           5.0000

           TOTAL OUT =        8969.3828             TOTAL OUT =          14.4534

            IN - OUT =           0.0000              IN - OUT =       1.3351E-04

 PERCENT DISCREPANCY =           0.00     PERCENT DISCREPANCY =           0.00






         TIME SUMMARY AT END OF TIME STEP    1 IN STRESS PERIOD  227
                    SECONDS     MINUTES      HOURS       DAYS        YEARS
                    -----------------------------------------------------------
   TIME STEP LENGTH  86400.      1440.0      24.000      1.0000     2.73785E-03
 STRESS PERIOD TIME  86400.      1440.0      24.000      1.0000     2.73785E-03
         TOTAL TIME 1.96128E+07 3.26880E+05  5448.0      227.00     0.62149    
1
1
                            STRESS PERIOD NO.  228, LENGTH =   1.000000    
                            -----------------------------------------------

                              NUMBER OF TIME STEPS =     1

                               MULTIPLIER FOR DELT =     1.000

                            INITIAL TIME STEP SIZE =   1.000000    

 REUSING NON-PARAMETER RIVER REACHES FROM LAST STRESS PERIOD

      2 RIVER REACHES

                 RECHARGE = -1.100000E-03
 
 SOLVING FOR HEAD 

 OUTPUT CONTROL FOR STRESS PERIOD  228   TIME STEP    1
    SAVE HEAD FOR ALL LAYERS

 HEAD WILL BE SAVED ON UNIT   51 AT END OF TIME STEP    1, STRESS PERIOD  228
1
  VOLUMETRIC BUDGET FOR ENTIRE MODEL AT END OF TIME STEP    1, STRESS PERIOD 228
  ------------------------------------------------------------------------------

     CUMULATIVE VOLUMES      L**3       RATES FOR THIS TIME STEP      L**3/T
     ------------------                 ------------------------

           IN:                                      IN:
           ---                                      ---
             STORAGE =        4217.0771               STORAGE =          19.4072
       CONSTANT HEAD =           0.0000         CONSTANT HEAD =           0.0000
       RIVER LEAKAGE =         564.7135         RIVER LEAKAGE =           0.0000
            RECHARGE =        4207.0000              RECHARGE =           0.0000

            TOTAL IN =        8988.7910              TOTAL IN =          19.4072

          OUT:                                     OUT:
          ----                                     ----
             STORAGE =        3973.4348               STORAGE =           0.3647
       CONSTANT HEAD =         674.6527         CONSTANT HEAD =           2.7779
       RIVER LEAKAGE =         309.7029         RIVER LEAKAGE =           5.2645
            RECHARGE =        4031.0000              RECHARGE =          11.0000

           TOTAL OUT =        8988.7910             TOTAL OUT =          19.4071

            IN - OUT =           0.0000              IN - OUT =       8.5831E-05

 PERCENT DISCREPANCY =           0.00     PERCENT DISCREPANCY =           0.00






         TIME SUMMARY AT END OF TIME STEP    1 IN STRESS PERIOD  228
                    SECONDS     MINUTES      HOURS       DAYS        YEARS
                    -----------------------------------------------------------
   TIME STEP LENGTH  86400.      1440.0      24.000      1.0000     2.73785E-03
 STRESS PERIOD TIME  86400.      1440.0      24.000      1.0000     2.73785E-03
         TOTAL TIME 1.96992E+07 3.28320E+05  5472.0      228.00     0.62423    
1
1
                            STRESS PERIOD NO.  229, LENGTH =   1.000000    
                            -----------------------------------------------

                              NUMBER OF TIME STEPS =     1

                               MULTIPLIER FOR DELT =     1.000

                            INITIAL TIME STEP SIZE =   1.000000    

 REUSING NON-PARAMETER RIVER REACHES FROM LAST STRESS PERIOD

      2 RIVER REACHES

                 RECHARGE = -9.000000E-04
 
 SOLVING FOR HEAD 

 OUTPUT CONTROL FOR STRESS PERIOD  229   TIME STEP    1
    SAVE HEAD FOR ALL LAYERS

 HEAD WILL BE SAVED ON UNIT   51 AT END OF TIME STEP    1, STRESS PERIOD  229
1
  VOLUMETRIC BUDGET FOR ENTIRE MODEL AT END OF TIME STEP    1, STRESS PERIOD 229
  ------------------------------------------------------------------------------

     CUMULATIVE VOLUMES      L**3       RATES FOR THIS TIME STEP      L**3/T
     ------------------                 ------------------------

           IN:                                      IN:
           ---                                      ---
             STORAGE =        4233.7900               STORAGE =          16.7128
       CONSTANT HEAD =           0.0000         CONSTANT HEAD =           0.0000
       RIVER LEAKAGE =         564.7135         RIVER LEAKAGE =           0.0000
            RECHARGE =        4207.0000              RECHARGE =           0.0000

            TOTAL IN =        9005.5039              TOTAL IN =          16.7128

          OUT:                                     OUT:
          ----                                     ----
             STORAGE =        3973.7842               STORAGE =           0.3495
       CONSTANT HEAD =         677.4344         CONSTANT HEAD =           2.7818
       RIVER LEAKAGE =         314.2847         RIVER LEAKAGE =           4.5818
            RECHARGE =        4040.0000              RECHARGE =           9.0000

           TOTAL OUT =        9005.5039             TOTAL OUT =          16.7130

            IN - OUT =           0.0000              IN - OUT =      -2.0218E-04

 PERCENT DISCREPANCY =           0.00     PERCENT DISCREPANCY =          -0.00






         TIME SUMMARY AT END OF TIME STEP    1 IN STRESS PERIOD  229
                    SECONDS     MINUTES      HOURS       DAYS        YEARS
                    -----------------------------------------------------------
   TIME STEP LENGTH  86400.      1440.0      24.000      1.0000     2.73785E-03
 STRESS PERIOD TIME  86400.      1440.0      24.000      1.0000     2.73785E-03
         TOTAL TIME 1.97856E+07 3.29760E+05  5496.0      229.00     0.62697    
1
1
                            STRESS PERIOD NO.  230, LENGTH =   1.000000    
                            -----------------------------------------------

                              NUMBER OF TIME STEPS =     1

                               MULTIPLIER FOR DELT =     1.000

                            INITIAL TIME STEP SIZE =   1.000000    

 REUSING NON-PARAMETER RIVER REACHES FROM LAST STRESS PERIOD

      2 RIVER REACHES

                 RECHARGE = -1.600000E-03
 
 SOLVING FOR HEAD 

 OUTPUT CONTROL FOR STRESS PERIOD  230   TIME STEP    1
    SAVE HEAD FOR ALL LAYERS

 HEAD WILL BE SAVED ON UNIT   51 AT END OF TIME STEP    1, STRESS PERIOD  230
1
  VOLUMETRIC BUDGET FOR ENTIRE MODEL AT END OF TIME STEP    1, STRESS PERIOD 230
  ------------------------------------------------------------------------------

     CUMULATIVE VOLUMES      L**3       RATES FOR THIS TIME STEP      L**3/T
     ------------------                 ------------------------

           IN:                                      IN:
           ---                                      ---
             STORAGE =        4256.6841               STORAGE =          22.8941
       CONSTANT HEAD =           0.0000         CONSTANT HEAD =           0.0000
       RIVER LEAKAGE =         564.7135         RIVER LEAKAGE =           0.0000
            RECHARGE =        4207.0000              RECHARGE =           0.0000

            TOTAL IN =        9028.3975              TOTAL IN =          22.8941

          OUT:                                     OUT:
          ----                                     ----
             STORAGE =        3974.1150               STORAGE =           0.3308
       CONSTANT HEAD =         680.2194         CONSTANT HEAD =           2.7850
       RIVER LEAKAGE =         318.0633         RIVER LEAKAGE =           3.7786
            RECHARGE =        4056.0000              RECHARGE =          16.0000

           TOTAL OUT =        9028.3984             TOTAL OUT =          22.8943

            IN - OUT =      -9.7656E-04              IN - OUT =      -2.2125E-04

 PERCENT DISCREPANCY =          -0.00     PERCENT DISCREPANCY =          -0.00






         TIME SUMMARY AT END OF TIME STEP    1 IN STRESS PERIOD  230
                    SECONDS     MINUTES      HOURS       DAYS        YEARS
                    -----------------------------------------------------------
   TIME STEP LENGTH  86400.      1440.0      24.000      1.0000     2.73785E-03
 STRESS PERIOD TIME  86400.      1440.0      24.000      1.0000     2.73785E-03
         TOTAL TIME 1.98720E+07 3.31200E+05  5520.0      230.00     0.62971    
1
1
                            STRESS PERIOD NO.  231, LENGTH =   1.000000    
                            -----------------------------------------------

                              NUMBER OF TIME STEPS =     1

                               MULTIPLIER FOR DELT =     1.000

                            INITIAL TIME STEP SIZE =   1.000000    

 REUSING NON-PARAMETER RIVER REACHES FROM LAST STRESS PERIOD

      2 RIVER REACHES

                 RECHARGE = -1.700000E-03
 
 SOLVING FOR HEAD 

 OUTPUT CONTROL FOR STRESS PERIOD  231   TIME STEP    1
    SAVE HEAD FOR ALL LAYERS

 HEAD WILL BE SAVED ON UNIT   51 AT END OF TIME STEP    1, STRESS PERIOD  231
1
  VOLUMETRIC BUDGET FOR ENTIRE MODEL AT END OF TIME STEP    1, STRESS PERIOD 231
  ------------------------------------------------------------------------------

     CUMULATIVE VOLUMES      L**3       RATES FOR THIS TIME STEP      L**3/T
     ------------------                 ------------------------

           IN:                                      IN:
           ---                                      ---
             STORAGE =        4279.9053               STORAGE =          23.2210
       CONSTANT HEAD =           0.0000         CONSTANT HEAD =           0.0000
       RIVER LEAKAGE =         564.7135         RIVER LEAKAGE =           0.0000
            RECHARGE =        4207.0000              RECHARGE =           0.0000

            TOTAL IN =        9051.6191              TOTAL IN =          23.2210

          OUT:                                     OUT:
          ----                                     ----
             STORAGE =        3974.4272               STORAGE =           0.3123
       CONSTANT HEAD =         683.0071         CONSTANT HEAD =           2.7877
       RIVER LEAKAGE =         321.1841         RIVER LEAKAGE =           3.1208
            RECHARGE =        4073.0000              RECHARGE =          17.0000

           TOTAL OUT =        9051.6191             TOTAL OUT =          23.2209

            IN - OUT =           0.0000              IN - OUT =       1.6212E-04

 PERCENT DISCREPANCY =           0.00     PERCENT DISCREPANCY =           0.00






         TIME SUMMARY AT END OF TIME STEP    1 IN STRESS PERIOD  231
                    SECONDS     MINUTES      HOURS       DAYS        YEARS
                    -----------------------------------------------------------
   TIME STEP LENGTH  86400.      1440.0      24.000      1.0000     2.73785E-03
 STRESS PERIOD TIME  86400.      1440.0      24.000      1.0000     2.73785E-03
         TOTAL TIME 1.99584E+07 3.32640E+05  5544.0      231.00     0.63244    
1
1
                            STRESS PERIOD NO.  232, LENGTH =   1.000000    
                            -----------------------------------------------

                              NUMBER OF TIME STEPS =     1

                               MULTIPLIER FOR DELT =     1.000

                            INITIAL TIME STEP SIZE =   1.000000    

 REUSING NON-PARAMETER RIVER REACHES FROM LAST STRESS PERIOD

      2 RIVER REACHES

                 RECHARGE = -1.600000E-03
 
 SOLVING FOR HEAD 

 OUTPUT CONTROL FOR STRESS PERIOD  232   TIME STEP    1
    SAVE HEAD FOR ALL LAYERS

 HEAD WILL BE SAVED ON UNIT   51 AT END OF TIME STEP    1, STRESS PERIOD  232
1
  VOLUMETRIC BUDGET FOR ENTIRE MODEL AT END OF TIME STEP    1, STRESS PERIOD 232
  ------------------------------------------------------------------------------

     CUMULATIVE VOLUMES      L**3       RATES FOR THIS TIME STEP      L**3/T
     ------------------                 ------------------------

           IN:                                      IN:
           ---                                      ---
             STORAGE =        4301.6006               STORAGE =          21.6952
       CONSTANT HEAD =           0.0000         CONSTANT HEAD =           0.0000
       RIVER LEAKAGE =         564.7135         RIVER LEAKAGE =           0.0000
            RECHARGE =        4207.0000              RECHARGE =           0.0000

            TOTAL IN =        9073.3145              TOTAL IN =          21.6952

          OUT:                                     OUT:
          ----                                     ----
             STORAGE =        3974.7224               STORAGE =           0.2952
       CONSTANT HEAD =         685.7973         CONSTANT HEAD =           2.7902
       RIVER LEAKAGE =         323.7941         RIVER LEAKAGE =           2.6100
            RECHARGE =        4089.0000              RECHARGE =          16.0000

           TOTAL OUT =        9073.3135             TOTAL OUT =          21.6954

            IN - OUT =       9.7656E-04              IN - OUT =      -2.5558E-04

 PERCENT DISCREPANCY =           0.00     PERCENT DISCREPANCY =          -0.00






         TIME SUMMARY AT END OF TIME STEP    1 IN STRESS PERIOD  232
                    SECONDS     MINUTES      HOURS       DAYS        YEARS
                    -----------------------------------------------------------
   TIME STEP LENGTH  86400.      1440.0      24.000      1.0000     2.73785E-03
 STRESS PERIOD TIME  86400.      1440.0      24.000      1.0000     2.73785E-03
         TOTAL TIME 2.00448E+07 3.34080E+05  5568.0      232.00     0.63518    
1
1
                            STRESS PERIOD NO.  233, LENGTH =   1.000000    
                            -----------------------------------------------

                              NUMBER OF TIME STEPS =     1

                               MULTIPLIER FOR DELT =     1.000

                            INITIAL TIME STEP SIZE =   1.000000    

 REUSING NON-PARAMETER RIVER REACHES FROM LAST STRESS PERIOD

      2 RIVER REACHES

                 RECHARGE = -6.000000E-04
 
 SOLVING FOR HEAD 

 OUTPUT CONTROL FOR STRESS PERIOD  233   TIME STEP    1
    SAVE HEAD FOR ALL LAYERS

 HEAD WILL BE SAVED ON UNIT   51 AT END OF TIME STEP    1, STRESS PERIOD  233
1
  VOLUMETRIC BUDGET FOR ENTIRE MODEL AT END OF TIME STEP    1, STRESS PERIOD 233
  ------------------------------------------------------------------------------

     CUMULATIVE VOLUMES      L**3       RATES FOR THIS TIME STEP      L**3/T
     ------------------                 ------------------------

           IN:                                      IN:
           ---                                      ---
             STORAGE =        4313.1865               STORAGE =          11.5858
       CONSTANT HEAD =           0.0000         CONSTANT HEAD =           0.0000
       RIVER LEAKAGE =         564.7135         RIVER LEAKAGE =           0.0000
            RECHARGE =        4207.0000              RECHARGE =           0.0000

            TOTAL IN =        9084.9004              TOTAL IN =          11.5858

          OUT:                                     OUT:
          ----                                     ----
             STORAGE =        3975.0071               STORAGE =           0.2848
       CONSTANT HEAD =         688.5900         CONSTANT HEAD =           2.7927
       RIVER LEAKAGE =         326.3024         RIVER LEAKAGE =           2.5083
            RECHARGE =        4095.0000              RECHARGE =           6.0000

           TOTAL OUT =        9084.8994             TOTAL OUT =          11.5857

            IN - OUT =       9.7656E-04              IN - OUT =       9.3460E-05

 PERCENT DISCREPANCY =           0.00     PERCENT DISCREPANCY =           0.00






         TIME SUMMARY AT END OF TIME STEP    1 IN STRESS PERIOD  233
                    SECONDS     MINUTES      HOURS       DAYS        YEARS
                    -----------------------------------------------------------
   TIME STEP LENGTH  86400.      1440.0      24.000      1.0000     2.73785E-03
 STRESS PERIOD TIME  86400.      1440.0      24.000      1.0000     2.73785E-03
         TOTAL TIME 2.01312E+07 3.35520E+05  5592.0      233.00     0.63792    
1
1
                            STRESS PERIOD NO.  234, LENGTH =   1.000000    
                            -----------------------------------------------

                              NUMBER OF TIME STEPS =     1

                               MULTIPLIER FOR DELT =     1.000

                            INITIAL TIME STEP SIZE =   1.000000    

 REUSING NON-PARAMETER RIVER REACHES FROM LAST STRESS PERIOD

      2 RIVER REACHES

                 RECHARGE = -1.300000E-03
 
 SOLVING FOR HEAD 

 OUTPUT CONTROL FOR STRESS PERIOD  234   TIME STEP    1
    SAVE HEAD FOR ALL LAYERS

 HEAD WILL BE SAVED ON UNIT   51 AT END OF TIME STEP    1, STRESS PERIOD  234
1
  VOLUMETRIC BUDGET FOR ENTIRE MODEL AT END OF TIME STEP    1, STRESS PERIOD 234
  ------------------------------------------------------------------------------

     CUMULATIVE VOLUMES      L**3       RATES FOR THIS TIME STEP      L**3/T
     ------------------                 ------------------------

           IN:                                      IN:
           ---                                      ---
             STORAGE =        4331.3296               STORAGE =          18.1431
       CONSTANT HEAD =           0.0000         CONSTANT HEAD =           0.0000
       RIVER LEAKAGE =         564.7135         RIVER LEAKAGE =           0.0000
            RECHARGE =        4207.0000              RECHARGE =           0.0000

            TOTAL IN =        9103.0430              TOTAL IN =          18.1431

          OUT:                                     OUT:
          ----                                     ----
             STORAGE =        3975.2773               STORAGE =           0.2703
       CONSTANT HEAD =         691.3849         CONSTANT HEAD =           2.7949
       RIVER LEAKAGE =         328.3802         RIVER LEAKAGE =           2.0779
            RECHARGE =        4108.0000              RECHARGE =          13.0000

           TOTAL OUT =        9103.0430             TOTAL OUT =          18.1431

            IN - OUT =           0.0000              IN - OUT =       4.5776E-05

 PERCENT DISCREPANCY =           0.00     PERCENT DISCREPANCY =           0.00






         TIME SUMMARY AT END OF TIME STEP    1 IN STRESS PERIOD  234
                    SECONDS     MINUTES      HOURS       DAYS        YEARS
                    -----------------------------------------------------------
   TIME STEP LENGTH  86400.      1440.0      24.000      1.0000     2.73785E-03
 STRESS PERIOD TIME  86400.      1440.0      24.000      1.0000     2.73785E-03
         TOTAL TIME 2.02176E+07 3.36960E+05  5616.0      234.00     0.64066    
1
1
                            STRESS PERIOD NO.  235, LENGTH =   1.000000    
                            -----------------------------------------------

                              NUMBER OF TIME STEPS =     1

                               MULTIPLIER FOR DELT =     1.000

                            INITIAL TIME STEP SIZE =   1.000000    

 REUSING NON-PARAMETER RIVER REACHES FROM LAST STRESS PERIOD

      2 RIVER REACHES

                 RECHARGE = -1.275000E-03
 
 SOLVING FOR HEAD 

 OUTPUT CONTROL FOR STRESS PERIOD  235   TIME STEP    1
    SAVE HEAD FOR ALL LAYERS

 HEAD WILL BE SAVED ON UNIT   51 AT END OF TIME STEP    1, STRESS PERIOD  235
1
  VOLUMETRIC BUDGET FOR ENTIRE MODEL AT END OF TIME STEP    1, STRESS PERIOD 235
  ------------------------------------------------------------------------------

     CUMULATIVE VOLUMES      L**3       RATES FOR THIS TIME STEP      L**3/T
     ------------------                 ------------------------

           IN:                                      IN:
           ---                                      ---
             STORAGE =        4348.8706               STORAGE =          17.5410
       CONSTANT HEAD =           0.0000         CONSTANT HEAD =           0.0000
       RIVER LEAKAGE =         564.7135         RIVER LEAKAGE =           0.0000
            RECHARGE =        4207.0000              RECHARGE =           0.0000

            TOTAL IN =        9120.5840              TOTAL IN =          17.5410

          OUT:                                     OUT:
          ----                                     ----
             STORAGE =        3975.5339               STORAGE =           0.2565
       CONSTANT HEAD =         694.1817         CONSTANT HEAD =           2.7968
       RIVER LEAKAGE =         330.1177         RIVER LEAKAGE =           1.7375
            RECHARGE =        4120.7500              RECHARGE =          12.7500

           TOTAL OUT =        9120.5840             TOTAL OUT =          17.5408

            IN - OUT =           0.0000              IN - OUT =       1.3733E-04

 PERCENT DISCREPANCY =           0.00     PERCENT DISCREPANCY =           0.00






         TIME SUMMARY AT END OF TIME STEP    1 IN STRESS PERIOD  235
                    SECONDS     MINUTES      HOURS       DAYS        YEARS
                    -----------------------------------------------------------
   TIME STEP LENGTH  86400.      1440.0      24.000      1.0000     2.73785E-03
 STRESS PERIOD TIME  86400.      1440.0      24.000      1.0000     2.73785E-03
         TOTAL TIME 2.03040E+07 3.38400E+05  5640.0      235.00     0.64339    
1
1
                            STRESS PERIOD NO.  236, LENGTH =   1.000000    
                            -----------------------------------------------

                              NUMBER OF TIME STEPS =     1

                               MULTIPLIER FOR DELT =     1.000

                            INITIAL TIME STEP SIZE =   1.000000    

 REUSING NON-PARAMETER RIVER REACHES FROM LAST STRESS PERIOD

      2 RIVER REACHES

                 RECHARGE =  6.800000E-03
 
 SOLVING FOR HEAD 

 OUTPUT CONTROL FOR STRESS PERIOD  236   TIME STEP    1
    SAVE HEAD FOR ALL LAYERS

 HEAD WILL BE SAVED ON UNIT   51 AT END OF TIME STEP    1, STRESS PERIOD  236
1
  VOLUMETRIC BUDGET FOR ENTIRE MODEL AT END OF TIME STEP    1, STRESS PERIOD 236
  ------------------------------------------------------------------------------

     CUMULATIVE VOLUMES      L**3       RATES FOR THIS TIME STEP      L**3/T
     ------------------                 ------------------------

           IN:                                      IN:
           ---                                      ---
             STORAGE =        4348.8706               STORAGE =           0.0000
       CONSTANT HEAD =           0.0000         CONSTANT HEAD =           0.0000
       RIVER LEAKAGE =         564.7135         RIVER LEAKAGE =           0.0000
            RECHARGE =        4275.0000              RECHARGE =          68.0000

            TOTAL IN =        9188.5840              TOTAL IN =          68.0000

          OUT:                                     OUT:
          ----                                     ----
             STORAGE =        4036.4741               STORAGE =          60.9402
       CONSTANT HEAD =         696.9831         CONSTANT HEAD =           2.8014
       RIVER LEAKAGE =         334.3760         RIVER LEAKAGE =           4.2583
            RECHARGE =        4120.7500              RECHARGE =           0.0000

           TOTAL OUT =        9188.5830             TOTAL OUT =          67.9998

            IN - OUT =       9.7656E-04              IN - OUT =       1.8311E-04

 PERCENT DISCREPANCY =           0.00     PERCENT DISCREPANCY =           0.00






         TIME SUMMARY AT END OF TIME STEP    1 IN STRESS PERIOD  236
                    SECONDS     MINUTES      HOURS       DAYS        YEARS
                    -----------------------------------------------------------
   TIME STEP LENGTH  86400.      1440.0      24.000      1.0000     2.73785E-03
 STRESS PERIOD TIME  86400.      1440.0      24.000      1.0000     2.73785E-03
         TOTAL TIME 2.03904E+07 3.39840E+05  5664.0      236.00     0.64613    
1
1
                            STRESS PERIOD NO.  237, LENGTH =   1.000000    
                            -----------------------------------------------

                              NUMBER OF TIME STEPS =     1

                               MULTIPLIER FOR DELT =     1.000

                            INITIAL TIME STEP SIZE =   1.000000    

 REUSING NON-PARAMETER RIVER REACHES FROM LAST STRESS PERIOD

      2 RIVER REACHES

                 RECHARGE = -4.000000E-04
 
 SOLVING FOR HEAD 

 OUTPUT CONTROL FOR STRESS PERIOD  237   TIME STEP    1
    SAVE HEAD FOR ALL LAYERS

 HEAD WILL BE SAVED ON UNIT   51 AT END OF TIME STEP    1, STRESS PERIOD  237
1
  VOLUMETRIC BUDGET FOR ENTIRE MODEL AT END OF TIME STEP    1, STRESS PERIOD 237
  ------------------------------------------------------------------------------

     CUMULATIVE VOLUMES      L**3       RATES FOR THIS TIME STEP      L**3/T
     ------------------                 ------------------------

           IN:                                      IN:
           ---                                      ---
             STORAGE =        4359.1797               STORAGE =          10.3089
       CONSTANT HEAD =           0.0000         CONSTANT HEAD =           0.0000
       RIVER LEAKAGE =         564.7135         RIVER LEAKAGE =           0.0000
            RECHARGE =        4275.0000              RECHARGE =           0.0000

            TOTAL IN =        9198.8926              TOTAL IN =          10.3089

          OUT:                                     OUT:
          ----                                     ----
             STORAGE =        4036.7561               STORAGE =           0.2820
       CONSTANT HEAD =         699.7877         CONSTANT HEAD =           2.8045
       RIVER LEAKAGE =         337.5982         RIVER LEAKAGE =           3.2222
            RECHARGE =        4124.7500              RECHARGE =           4.0000

           TOTAL OUT =        9198.8926             TOTAL OUT =          10.3087

            IN - OUT =           0.0000              IN - OUT =       2.0695E-04

 PERCENT DISCREPANCY =           0.00     PERCENT DISCREPANCY =           0.00






         TIME SUMMARY AT END OF TIME STEP    1 IN STRESS PERIOD  237
                    SECONDS     MINUTES      HOURS       DAYS        YEARS
                    -----------------------------------------------------------
   TIME STEP LENGTH  86400.      1440.0      24.000      1.0000     2.73785E-03
 STRESS PERIOD TIME  86400.      1440.0      24.000      1.0000     2.73785E-03
         TOTAL TIME 2.04768E+07 3.41280E+05  5688.0      237.00     0.64887    
1
1
                            STRESS PERIOD NO.  238, LENGTH =   1.000000    
                            -----------------------------------------------

                              NUMBER OF TIME STEPS =     1

                               MULTIPLIER FOR DELT =     1.000

                            INITIAL TIME STEP SIZE =   1.000000    

 REUSING NON-PARAMETER RIVER REACHES FROM LAST STRESS PERIOD

      2 RIVER REACHES

                 RECHARGE =  1.250000E-02
 
 SOLVING FOR HEAD 

 OUTPUT CONTROL FOR STRESS PERIOD  238   TIME STEP    1
    SAVE HEAD FOR ALL LAYERS

 HEAD WILL BE SAVED ON UNIT   51 AT END OF TIME STEP    1, STRESS PERIOD  238
1
  VOLUMETRIC BUDGET FOR ENTIRE MODEL AT END OF TIME STEP    1, STRESS PERIOD 238
  ------------------------------------------------------------------------------

     CUMULATIVE VOLUMES      L**3       RATES FOR THIS TIME STEP      L**3/T
     ------------------                 ------------------------

           IN:                                      IN:
           ---                                      ---
             STORAGE =        4359.1797               STORAGE =           0.0000
       CONSTANT HEAD =           0.0000         CONSTANT HEAD =           0.0000
       RIVER LEAKAGE =         564.7135         RIVER LEAKAGE =           0.0000
            RECHARGE =        4400.0000              RECHARGE =         125.0000

            TOTAL IN =        9323.8926              TOTAL IN =         125.0000

          OUT:                                     OUT:
          ----                                     ----
             STORAGE =        4151.6626               STORAGE =         114.9066
       CONSTANT HEAD =         702.5995         CONSTANT HEAD =           2.8118
       RIVER LEAKAGE =         344.8798         RIVER LEAKAGE =           7.2816
            RECHARGE =        4124.7500              RECHARGE =           0.0000

           TOTAL OUT =        9323.8926             TOTAL OUT =         125.0000

            IN - OUT =           0.0000              IN - OUT =      -2.2888E-05

 PERCENT DISCREPANCY =           0.00     PERCENT DISCREPANCY =          -0.00






         TIME SUMMARY AT END OF TIME STEP    1 IN STRESS PERIOD  238
                    SECONDS     MINUTES      HOURS       DAYS        YEARS
                    -----------------------------------------------------------
   TIME STEP LENGTH  86400.      1440.0      24.000      1.0000     2.73785E-03
 STRESS PERIOD TIME  86400.      1440.0      24.000      1.0000     2.73785E-03
         TOTAL TIME 2.05632E+07 3.42720E+05  5712.0      238.00     0.65161    
1
1
                            STRESS PERIOD NO.  239, LENGTH =   1.000000    
                            -----------------------------------------------

                              NUMBER OF TIME STEPS =     1

                               MULTIPLIER FOR DELT =     1.000

                            INITIAL TIME STEP SIZE =   1.000000    

 REUSING NON-PARAMETER RIVER REACHES FROM LAST STRESS PERIOD

      2 RIVER REACHES

                 RECHARGE = -8.000000E-04
 
 SOLVING FOR HEAD 

 OUTPUT CONTROL FOR STRESS PERIOD  239   TIME STEP    1
    SAVE HEAD FOR ALL LAYERS

 HEAD WILL BE SAVED ON UNIT   51 AT END OF TIME STEP    1, STRESS PERIOD  239
1
  VOLUMETRIC BUDGET FOR ENTIRE MODEL AT END OF TIME STEP    1, STRESS PERIOD 239
  ------------------------------------------------------------------------------

     CUMULATIVE VOLUMES      L**3       RATES FOR THIS TIME STEP      L**3/T
     ------------------                 ------------------------

           IN:                                      IN:
           ---                                      ---
             STORAGE =        4375.4634               STORAGE =          16.2836
       CONSTANT HEAD =           0.0000         CONSTANT HEAD =           0.0000
       RIVER LEAKAGE =         564.7135         RIVER LEAKAGE =           0.0000
            RECHARGE =        4400.0000              RECHARGE =           0.0000

            TOTAL IN =        9340.1768              TOTAL IN =          16.2836

          OUT:                                     OUT:
          ----                                     ----
             STORAGE =        4151.9980               STORAGE =           0.3353
       CONSTANT HEAD =         705.4157         CONSTANT HEAD =           2.8162
       RIVER LEAKAGE =         350.0121         RIVER LEAKAGE =           5.1322
            RECHARGE =        4132.7500              RECHARGE =           8.0000

           TOTAL OUT =        9340.1758             TOTAL OUT =          16.2838

            IN - OUT =       9.7656E-04              IN - OUT =      -1.3924E-04

 PERCENT DISCREPANCY =           0.00     PERCENT DISCREPANCY =          -0.00






         TIME SUMMARY AT END OF TIME STEP    1 IN STRESS PERIOD  239
                    SECONDS     MINUTES      HOURS       DAYS        YEARS
                    -----------------------------------------------------------
   TIME STEP LENGTH  86400.      1440.0      24.000      1.0000     2.73785E-03
 STRESS PERIOD TIME  86400.      1440.0      24.000      1.0000     2.73785E-03
         TOTAL TIME 2.06496E+07 3.44160E+05  5736.0      239.00     0.65435    
1
1
                            STRESS PERIOD NO.  240, LENGTH =   1.000000    
                            -----------------------------------------------

                              NUMBER OF TIME STEPS =     1

                               MULTIPLIER FOR DELT =     1.000

                            INITIAL TIME STEP SIZE =   1.000000    

 REUSING NON-PARAMETER RIVER REACHES FROM LAST STRESS PERIOD

      2 RIVER REACHES

                 RECHARGE =  5.000000E-04
 
 SOLVING FOR HEAD 

 OUTPUT CONTROL FOR STRESS PERIOD  240   TIME STEP    1
    SAVE HEAD FOR ALL LAYERS

 HEAD WILL BE SAVED ON UNIT   51 AT END OF TIME STEP    1, STRESS PERIOD  240
1
  VOLUMETRIC BUDGET FOR ENTIRE MODEL AT END OF TIME STEP    1, STRESS PERIOD 240
  ------------------------------------------------------------------------------

     CUMULATIVE VOLUMES      L**3       RATES FOR THIS TIME STEP      L**3/T
     ------------------                 ------------------------

           IN:                                      IN:
           ---                                      ---
             STORAGE =        4379.1836               STORAGE =           3.7203
       CONSTANT HEAD =           0.0000         CONSTANT HEAD =           0.0000
       RIVER LEAKAGE =         564.7135         RIVER LEAKAGE =           0.0000
            RECHARGE =        4405.0000              RECHARGE =           5.0000

            TOTAL IN =        9348.8965              TOTAL IN =           8.7203

          OUT:                                     OUT:
          ----                                     ----
             STORAGE =        4153.2729               STORAGE =           1.2750
       CONSTANT HEAD =         708.2361         CONSTANT HEAD =           2.8204
       RIVER LEAKAGE =         354.6372         RIVER LEAKAGE =           4.6251
            RECHARGE =        4132.7500              RECHARGE =           0.0000

           TOTAL OUT =        9348.8965             TOTAL OUT =           8.7205

            IN - OUT =           0.0000              IN - OUT =      -1.0872E-04

 PERCENT DISCREPANCY =           0.00     PERCENT DISCREPANCY =          -0.00






         TIME SUMMARY AT END OF TIME STEP    1 IN STRESS PERIOD  240
                    SECONDS     MINUTES      HOURS       DAYS        YEARS
                    -----------------------------------------------------------
   TIME STEP LENGTH  86400.      1440.0      24.000      1.0000     2.73785E-03
 STRESS PERIOD TIME  86400.      1440.0      24.000      1.0000     2.73785E-03
         TOTAL TIME 2.07360E+07 3.45600E+05  5760.0      240.00     0.65708    
1
1
                            STRESS PERIOD NO.  241, LENGTH =   1.000000    
                            -----------------------------------------------

                              NUMBER OF TIME STEPS =     1

                               MULTIPLIER FOR DELT =     1.000

                            INITIAL TIME STEP SIZE =   1.000000    

 REUSING NON-PARAMETER RIVER REACHES FROM LAST STRESS PERIOD

      2 RIVER REACHES

                 RECHARGE = -4.750000E-04
 
 SOLVING FOR HEAD 

 OUTPUT CONTROL FOR STRESS PERIOD  241   TIME STEP    1
    SAVE HEAD FOR ALL LAYERS

 HEAD WILL BE SAVED ON UNIT   51 AT END OF TIME STEP    1, STRESS PERIOD  241
1
  VOLUMETRIC BUDGET FOR ENTIRE MODEL AT END OF TIME STEP    1, STRESS PERIOD 241
  ------------------------------------------------------------------------------

     CUMULATIVE VOLUMES      L**3       RATES FOR THIS TIME STEP      L**3/T
     ------------------                 ------------------------

           IN:                                      IN:
           ---                                      ---
             STORAGE =        4391.0288               STORAGE =          11.8453
       CONSTANT HEAD =           0.0000         CONSTANT HEAD =           0.0000
       RIVER LEAKAGE =         564.7135         RIVER LEAKAGE =           0.0000
            RECHARGE =        4405.0000              RECHARGE =           0.0000

            TOTAL IN =        9360.7422              TOTAL IN =          11.8453

          OUT:                                     OUT:
          ----                                     ----
             STORAGE =        4153.5903               STORAGE =           0.3174
       CONSTANT HEAD =         711.0600         CONSTANT HEAD =           2.8239
       RIVER LEAKAGE =         358.5913         RIVER LEAKAGE =           3.9541
            RECHARGE =        4137.5000              RECHARGE =           4.7500

           TOTAL OUT =        9360.7422             TOTAL OUT =          11.8455

            IN - OUT =           0.0000              IN - OUT =      -2.0504E-04

 PERCENT DISCREPANCY =           0.00     PERCENT DISCREPANCY =          -0.00






         TIME SUMMARY AT END OF TIME STEP    1 IN STRESS PERIOD  241
                    SECONDS     MINUTES      HOURS       DAYS        YEARS
                    -----------------------------------------------------------
   TIME STEP LENGTH  86400.      1440.0      24.000      1.0000     2.73785E-03
 STRESS PERIOD TIME  86400.      1440.0      24.000      1.0000     2.73785E-03
         TOTAL TIME 2.08224E+07 3.47040E+05  5784.0      241.00     0.65982    
1
1
                            STRESS PERIOD NO.  242, LENGTH =   1.000000    
                            -----------------------------------------------

                              NUMBER OF TIME STEPS =     1

                               MULTIPLIER FOR DELT =     1.000

                            INITIAL TIME STEP SIZE =   1.000000    

 REUSING NON-PARAMETER RIVER REACHES FROM LAST STRESS PERIOD

      2 RIVER REACHES

                 RECHARGE = -8.000000E-04
 
 SOLVING FOR HEAD 

 OUTPUT CONTROL FOR STRESS PERIOD  242   TIME STEP    1
    SAVE HEAD FOR ALL LAYERS

 HEAD WILL BE SAVED ON UNIT   51 AT END OF TIME STEP    1, STRESS PERIOD  242
1
  VOLUMETRIC BUDGET FOR ENTIRE MODEL AT END OF TIME STEP    1, STRESS PERIOD 242
  ------------------------------------------------------------------------------

     CUMULATIVE VOLUMES      L**3       RATES FOR THIS TIME STEP      L**3/T
     ------------------                 ------------------------

           IN:                                      IN:
           ---                                      ---
             STORAGE =        4405.5518               STORAGE =          14.5229
       CONSTANT HEAD =           0.0000         CONSTANT HEAD =           0.0000
       RIVER LEAKAGE =         564.7135         RIVER LEAKAGE =           0.0000
            RECHARGE =        4405.0000              RECHARGE =           0.0000

            TOTAL IN =        9375.2656              TOTAL IN =          14.5229

          OUT:                                     OUT:
          ----                                     ----
             STORAGE =        4153.8945               STORAGE =           0.3044
       CONSTANT HEAD =         713.8870         CONSTANT HEAD =           2.8270
       RIVER LEAKAGE =         361.9828         RIVER LEAKAGE =           3.3915
            RECHARGE =        4145.5000              RECHARGE =           8.0000

           TOTAL OUT =        9375.2646             TOTAL OUT =          14.5230

            IN - OUT =       9.7656E-04              IN - OUT =      -1.0490E-04

 PERCENT DISCREPANCY =           0.00     PERCENT DISCREPANCY =          -0.00






         TIME SUMMARY AT END OF TIME STEP    1 IN STRESS PERIOD  242
                    SECONDS     MINUTES      HOURS       DAYS        YEARS
                    -----------------------------------------------------------
   TIME STEP LENGTH  86400.      1440.0      24.000      1.0000     2.73785E-03
 STRESS PERIOD TIME  86400.      1440.0      24.000      1.0000     2.73785E-03
         TOTAL TIME 2.09088E+07 3.48480E+05  5808.0      242.00     0.66256    
1
1
                            STRESS PERIOD NO.  243, LENGTH =   1.000000    
                            -----------------------------------------------

                              NUMBER OF TIME STEPS =     1

                               MULTIPLIER FOR DELT =     1.000

                            INITIAL TIME STEP SIZE =   1.000000    

 REUSING NON-PARAMETER RIVER REACHES FROM LAST STRESS PERIOD

      2 RIVER REACHES

                 RECHARGE = -7.000000E-04
 
 SOLVING FOR HEAD 

 OUTPUT CONTROL FOR STRESS PERIOD  243   TIME STEP    1
    SAVE HEAD FOR ALL LAYERS

 HEAD WILL BE SAVED ON UNIT   51 AT END OF TIME STEP    1, STRESS PERIOD  243
1
  VOLUMETRIC BUDGET FOR ENTIRE MODEL AT END OF TIME STEP    1, STRESS PERIOD 243
  ------------------------------------------------------------------------------

     CUMULATIVE VOLUMES      L**3       RATES FOR THIS TIME STEP      L**3/T
     ------------------                 ------------------------

           IN:                                      IN:
           ---                                      ---
             STORAGE =        4418.6831               STORAGE =          13.1313
       CONSTANT HEAD =           0.0000         CONSTANT HEAD =           0.0000
       RIVER LEAKAGE =         564.7135         RIVER LEAKAGE =           0.0000
            RECHARGE =        4405.0000              RECHARGE =           0.0000

            TOTAL IN =        9388.3965              TOTAL IN =          13.1313

          OUT:                                     OUT:
          ----                                     ----
             STORAGE =        4154.1870               STORAGE =           0.2926
       CONSTANT HEAD =         716.7170         CONSTANT HEAD =           2.8299
       RIVER LEAKAGE =         364.9916         RIVER LEAKAGE =           3.0088
            RECHARGE =        4152.5000              RECHARGE =           7.0000

           TOTAL OUT =        9388.3955             TOTAL OUT =          13.1314

            IN - OUT =       9.7656E-04              IN - OUT =      -8.3923E-05

 PERCENT DISCREPANCY =           0.00     PERCENT DISCREPANCY =          -0.00






         TIME SUMMARY AT END OF TIME STEP    1 IN STRESS PERIOD  243
                    SECONDS     MINUTES      HOURS       DAYS        YEARS
                    -----------------------------------------------------------
   TIME STEP LENGTH  86400.      1440.0      24.000      1.0000     2.73785E-03
 STRESS PERIOD TIME  86400.      1440.0      24.000      1.0000     2.73785E-03
         TOTAL TIME 2.09952E+07 3.49920E+05  5832.0      243.00     0.66530    
1
1
                            STRESS PERIOD NO.  244, LENGTH =   1.000000    
                            -----------------------------------------------

                              NUMBER OF TIME STEPS =     1

                               MULTIPLIER FOR DELT =     1.000

                            INITIAL TIME STEP SIZE =   1.000000    

 REUSING NON-PARAMETER RIVER REACHES FROM LAST STRESS PERIOD

      2 RIVER REACHES

                 RECHARGE =  1.200000E-03
 
 SOLVING FOR HEAD 

 OUTPUT CONTROL FOR STRESS PERIOD  244   TIME STEP    1
    SAVE HEAD FOR ALL LAYERS

 HEAD WILL BE SAVED ON UNIT   51 AT END OF TIME STEP    1, STRESS PERIOD  244
1
  VOLUMETRIC BUDGET FOR ENTIRE MODEL AT END OF TIME STEP    1, STRESS PERIOD 244
  ------------------------------------------------------------------------------

     CUMULATIVE VOLUMES      L**3       RATES FOR THIS TIME STEP      L**3/T
     ------------------                 ------------------------

           IN:                                      IN:
           ---                                      ---
             STORAGE =        4418.6831               STORAGE =           0.0000
       CONSTANT HEAD =           0.0000         CONSTANT HEAD =           0.0000
       RIVER LEAKAGE =         564.7135         RIVER LEAKAGE =           0.0000
            RECHARGE =        4417.0000              RECHARGE =          12.0000

            TOTAL IN =        9400.3965              TOTAL IN =          12.0000

          OUT:                                     OUT:
          ----                                     ----
             STORAGE =        4159.9990               STORAGE =           5.8121
       CONSTANT HEAD =         719.5502         CONSTANT HEAD =           2.8333
       RIVER LEAKAGE =         368.3463         RIVER LEAKAGE =           3.3546
            RECHARGE =        4152.5000              RECHARGE =           0.0000

           TOTAL OUT =        9400.3955             TOTAL OUT =          12.0000

            IN - OUT =       9.7656E-04              IN - OUT =      -3.5286E-05

 PERCENT DISCREPANCY =           0.00     PERCENT DISCREPANCY =          -0.00






         TIME SUMMARY AT END OF TIME STEP    1 IN STRESS PERIOD  244
                    SECONDS     MINUTES      HOURS       DAYS        YEARS
                    -----------------------------------------------------------
   TIME STEP LENGTH  86400.      1440.0      24.000      1.0000     2.73785E-03
 STRESS PERIOD TIME  86400.      1440.0      24.000      1.0000     2.73785E-03
         TOTAL TIME 2.10816E+07 3.51360E+05  5856.0      244.00     0.66804    
1
1
                            STRESS PERIOD NO.  245, LENGTH =   1.000000    
                            -----------------------------------------------

                              NUMBER OF TIME STEPS =     1

                               MULTIPLIER FOR DELT =     1.000

                            INITIAL TIME STEP SIZE =   1.000000    

 REUSING NON-PARAMETER RIVER REACHES FROM LAST STRESS PERIOD

      2 RIVER REACHES

                 RECHARGE =  1.000000E-04
 
 SOLVING FOR HEAD 

 OUTPUT CONTROL FOR STRESS PERIOD  245   TIME STEP    1
    SAVE HEAD FOR ALL LAYERS

 HEAD WILL BE SAVED ON UNIT   51 AT END OF TIME STEP    1, STRESS PERIOD  245
1
  VOLUMETRIC BUDGET FOR ENTIRE MODEL AT END OF TIME STEP    1, STRESS PERIOD 245
  ------------------------------------------------------------------------------

     CUMULATIVE VOLUMES      L**3       RATES FOR THIS TIME STEP      L**3/T
     ------------------                 ------------------------

           IN:                                      IN:
           ---                                      ---
             STORAGE =        4423.9150               STORAGE =           5.2318
       CONSTANT HEAD =           0.0000         CONSTANT HEAD =           0.0000
       RIVER LEAKAGE =         564.7135         RIVER LEAKAGE =           0.0000
            RECHARGE =        4418.0000              RECHARGE =           1.0000

            TOTAL IN =        9406.6289              TOTAL IN =           6.2318

          OUT:                                     OUT:
          ----                                     ----
             STORAGE =        4160.2852               STORAGE =           0.2860
       CONSTANT HEAD =         722.3865         CONSTANT HEAD =           2.8363
       RIVER LEAKAGE =         371.4557         RIVER LEAKAGE =           3.1094
            RECHARGE =        4152.5000              RECHARGE =           0.0000

           TOTAL OUT =        9406.6270             TOTAL OUT =           6.2317

            IN - OUT =       1.9531E-03              IN - OUT =       7.8201E-05

 PERCENT DISCREPANCY =           0.00     PERCENT DISCREPANCY =           0.00






         TIME SUMMARY AT END OF TIME STEP    1 IN STRESS PERIOD  245
                    SECONDS     MINUTES      HOURS       DAYS        YEARS
                    -----------------------------------------------------------
   TIME STEP LENGTH  86400.      1440.0      24.000      1.0000     2.73785E-03
 STRESS PERIOD TIME  86400.      1440.0      24.000      1.0000     2.73785E-03
         TOTAL TIME 2.11680E+07 3.52800E+05  5880.0      245.00     0.67077    
1
1
                            STRESS PERIOD NO.  246, LENGTH =   1.000000    
                            -----------------------------------------------

                              NUMBER OF TIME STEPS =     1

                               MULTIPLIER FOR DELT =     1.000

                            INITIAL TIME STEP SIZE =   1.000000    

 REUSING NON-PARAMETER RIVER REACHES FROM LAST STRESS PERIOD

      2 RIVER REACHES

                 RECHARGE = -8.750000E-04
 
 SOLVING FOR HEAD 

 OUTPUT CONTROL FOR STRESS PERIOD  246   TIME STEP    1
    SAVE HEAD FOR ALL LAYERS

 HEAD WILL BE SAVED ON UNIT   51 AT END OF TIME STEP    1, STRESS PERIOD  246
1
  VOLUMETRIC BUDGET FOR ENTIRE MODEL AT END OF TIME STEP    1, STRESS PERIOD 246
  ------------------------------------------------------------------------------

     CUMULATIVE VOLUMES      L**3       RATES FOR THIS TIME STEP      L**3/T
     ------------------                 ------------------------

           IN:                                      IN:
           ---                                      ---
             STORAGE =        4438.3838               STORAGE =          14.4688
       CONSTANT HEAD =           0.0000         CONSTANT HEAD =           0.0000
       RIVER LEAKAGE =         564.7135         RIVER LEAKAGE =           0.0000
            RECHARGE =        4418.0000              RECHARGE =           0.0000

            TOTAL IN =        9421.0977              TOTAL IN =          14.4688

          OUT:                                     OUT:
          ----                                     ----
             STORAGE =        4160.5586               STORAGE =           0.2736
       CONSTANT HEAD =         725.2255         CONSTANT HEAD =           2.8389
       RIVER LEAKAGE =         374.0619         RIVER LEAKAGE =           2.6062
            RECHARGE =        4161.2500              RECHARGE =           8.7500

           TOTAL OUT =        9421.0957             TOTAL OUT =          14.4688

            IN - OUT =       1.9531E-03              IN - OUT =      -1.1444E-05

 PERCENT DISCREPANCY =           0.00     PERCENT DISCREPANCY =          -0.00






         TIME SUMMARY AT END OF TIME STEP    1 IN STRESS PERIOD  246
                    SECONDS     MINUTES      HOURS       DAYS        YEARS
                    -----------------------------------------------------------
   TIME STEP LENGTH  86400.      1440.0      24.000      1.0000     2.73785E-03
 STRESS PERIOD TIME  86400.      1440.0      24.000      1.0000     2.73785E-03
         TOTAL TIME 2.12544E+07 3.54240E+05  5904.0      246.00     0.67351    
1
1
                            STRESS PERIOD NO.  247, LENGTH =   1.000000    
                            -----------------------------------------------

                              NUMBER OF TIME STEPS =     1

                               MULTIPLIER FOR DELT =     1.000

                            INITIAL TIME STEP SIZE =   1.000000    

 REUSING NON-PARAMETER RIVER REACHES FROM LAST STRESS PERIOD

      2 RIVER REACHES

                 RECHARGE = -2.750000E-04
 
 SOLVING FOR HEAD 

 OUTPUT CONTROL FOR STRESS PERIOD  247   TIME STEP    1
    SAVE HEAD FOR ALL LAYERS

 HEAD WILL BE SAVED ON UNIT   51 AT END OF TIME STEP    1, STRESS PERIOD  247
1
  VOLUMETRIC BUDGET FOR ENTIRE MODEL AT END OF TIME STEP    1, STRESS PERIOD 247
  ------------------------------------------------------------------------------

     CUMULATIVE VOLUMES      L**3       RATES FOR THIS TIME STEP      L**3/T
     ------------------                 ------------------------

           IN:                                      IN:
           ---                                      ---
             STORAGE =        4446.7100               STORAGE =           8.3262
       CONSTANT HEAD =           0.0000         CONSTANT HEAD =           0.0000
       RIVER LEAKAGE =         564.7135         RIVER LEAKAGE =           0.0000
            RECHARGE =        4418.0000              RECHARGE =           0.0000

            TOTAL IN =        9429.4238              TOTAL IN =           8.3262

          OUT:                                     OUT:
          ----                                     ----
             STORAGE =        4160.8237               STORAGE =           0.2653
       CONSTANT HEAD =         728.0670         CONSTANT HEAD =           2.8415
       RIVER LEAKAGE =         376.5314         RIVER LEAKAGE =           2.4695
            RECHARGE =        4164.0000              RECHARGE =           2.7500

           TOTAL OUT =        9429.4219             TOTAL OUT =           8.3263

            IN - OUT =       1.9531E-03              IN - OUT =      -1.0967E-04

 PERCENT DISCREPANCY =           0.00     PERCENT DISCREPANCY =          -0.00






         TIME SUMMARY AT END OF TIME STEP    1 IN STRESS PERIOD  247
                    SECONDS     MINUTES      HOURS       DAYS        YEARS
                    -----------------------------------------------------------
   TIME STEP LENGTH  86400.      1440.0      24.000      1.0000     2.73785E-03
 STRESS PERIOD TIME  86400.      1440.0      24.000      1.0000     2.73785E-03
         TOTAL TIME 2.13408E+07 3.55680E+05  5928.0      247.00     0.67625    
1
1
                            STRESS PERIOD NO.  248, LENGTH =   1.000000    
                            -----------------------------------------------

                              NUMBER OF TIME STEPS =     1

                               MULTIPLIER FOR DELT =     1.000

                            INITIAL TIME STEP SIZE =   1.000000    

 REUSING NON-PARAMETER RIVER REACHES FROM LAST STRESS PERIOD

      2 RIVER REACHES

                 RECHARGE = -4.000000E-04
 
 SOLVING FOR HEAD 

 OUTPUT CONTROL FOR STRESS PERIOD  248   TIME STEP    1
    SAVE HEAD FOR ALL LAYERS

 HEAD WILL BE SAVED ON UNIT   51 AT END OF TIME STEP    1, STRESS PERIOD  248
1
  VOLUMETRIC BUDGET FOR ENTIRE MODEL AT END OF TIME STEP    1, STRESS PERIOD 248
  ------------------------------------------------------------------------------

     CUMULATIVE VOLUMES      L**3       RATES FOR THIS TIME STEP      L**3/T
     ------------------                 ------------------------

           IN:                                      IN:
           ---                                      ---
             STORAGE =        4456.0845               STORAGE =           9.3745
       CONSTANT HEAD =           0.0000         CONSTANT HEAD =           0.0000
       RIVER LEAKAGE =         564.7135         RIVER LEAKAGE =           0.0000
            RECHARGE =        4418.0000              RECHARGE =           0.0000

            TOTAL IN =        9438.7979              TOTAL IN =           9.3745

          OUT:                                     OUT:
          ----                                     ----
             STORAGE =        4161.0801               STORAGE =           0.2564
       CONSTANT HEAD =         730.9109         CONSTANT HEAD =           2.8439
       RIVER LEAKAGE =         378.8053         RIVER LEAKAGE =           2.2740
            RECHARGE =        4168.0000              RECHARGE =           4.0000

           TOTAL OUT =        9438.7969             TOTAL OUT =           9.3743

            IN - OUT =       9.7656E-04              IN - OUT =       1.8120E-04

 PERCENT DISCREPANCY =           0.00     PERCENT DISCREPANCY =           0.00






         TIME SUMMARY AT END OF TIME STEP    1 IN STRESS PERIOD  248
                    SECONDS     MINUTES      HOURS       DAYS        YEARS
                    -----------------------------------------------------------
   TIME STEP LENGTH  86400.      1440.0      24.000      1.0000     2.73785E-03
 STRESS PERIOD TIME  86400.      1440.0      24.000      1.0000     2.73785E-03
         TOTAL TIME 2.14272E+07 3.57120E+05  5952.0      248.00     0.67899    
1
1
                            STRESS PERIOD NO.  249, LENGTH =   1.000000    
                            -----------------------------------------------

                              NUMBER OF TIME STEPS =     1

                               MULTIPLIER FOR DELT =     1.000

                            INITIAL TIME STEP SIZE =   1.000000    

 REUSING NON-PARAMETER RIVER REACHES FROM LAST STRESS PERIOD

      2 RIVER REACHES

                 RECHARGE = -5.750000E-04
 
 SOLVING FOR HEAD 

 OUTPUT CONTROL FOR STRESS PERIOD  249   TIME STEP    1
    SAVE HEAD FOR ALL LAYERS

 HEAD WILL BE SAVED ON UNIT   51 AT END OF TIME STEP    1, STRESS PERIOD  249
1
  VOLUMETRIC BUDGET FOR ENTIRE MODEL AT END OF TIME STEP    1, STRESS PERIOD 249
  ------------------------------------------------------------------------------

     CUMULATIVE VOLUMES      L**3       RATES FOR THIS TIME STEP      L**3/T
     ------------------                 ------------------------

           IN:                                      IN:
           ---                                      ---
             STORAGE =        4466.9692               STORAGE =          10.8847
       CONSTANT HEAD =           0.0000         CONSTANT HEAD =           0.0000
       RIVER LEAKAGE =         564.7135         RIVER LEAKAGE =           0.0000
            RECHARGE =        4418.0000              RECHARGE =           0.0000

            TOTAL IN =        9449.6826              TOTAL IN =          10.8847

          OUT:                                     OUT:
          ----                                     ----
             STORAGE =        4161.3267               STORAGE =           0.2468
       CONSTANT HEAD =         733.7571         CONSTANT HEAD =           2.8462
       RIVER LEAKAGE =         380.8469         RIVER LEAKAGE =           2.0416
            RECHARGE =        4173.7500              RECHARGE =           5.7500

           TOTAL OUT =        9449.6807             TOTAL OUT =          10.8846

            IN - OUT =       1.9531E-03              IN - OUT =       1.3256E-04

 PERCENT DISCREPANCY =           0.00     PERCENT DISCREPANCY =           0.00






         TIME SUMMARY AT END OF TIME STEP    1 IN STRESS PERIOD  249
                    SECONDS     MINUTES      HOURS       DAYS        YEARS
                    -----------------------------------------------------------
   TIME STEP LENGTH  86400.      1440.0      24.000      1.0000     2.73785E-03
 STRESS PERIOD TIME  86400.      1440.0      24.000      1.0000     2.73785E-03
         TOTAL TIME 2.15136E+07 3.58560E+05  5976.0      249.00     0.68172    
1
1
                            STRESS PERIOD NO.  250, LENGTH =   1.000000    
                            -----------------------------------------------

                              NUMBER OF TIME STEPS =     1

                               MULTIPLIER FOR DELT =     1.000

                            INITIAL TIME STEP SIZE =   1.000000    

 REUSING NON-PARAMETER RIVER REACHES FROM LAST STRESS PERIOD

      2 RIVER REACHES

                 RECHARGE =  1.000000E-04
 
 SOLVING FOR HEAD 

 OUTPUT CONTROL FOR STRESS PERIOD  250   TIME STEP    1
    SAVE HEAD FOR ALL LAYERS

 HEAD WILL BE SAVED ON UNIT   51 AT END OF TIME STEP    1, STRESS PERIOD  250
1
  VOLUMETRIC BUDGET FOR ENTIRE MODEL AT END OF TIME STEP    1, STRESS PERIOD 250
  ------------------------------------------------------------------------------

     CUMULATIVE VOLUMES      L**3       RATES FOR THIS TIME STEP      L**3/T
     ------------------                 ------------------------

           IN:                                      IN:
           ---                                      ---
             STORAGE =        4471.1533               STORAGE =           4.1840
       CONSTANT HEAD =           0.0000         CONSTANT HEAD =           0.0000
       RIVER LEAKAGE =         564.7135         RIVER LEAKAGE =           0.0000
            RECHARGE =        4419.0000              RECHARGE =           1.0000

            TOTAL IN =        9454.8672              TOTAL IN =           5.1840

          OUT:                                     OUT:
          ----                                     ----
             STORAGE =        4161.5781               STORAGE =           0.2513
       CONSTANT HEAD =         736.6057         CONSTANT HEAD =           2.8486
       RIVER LEAKAGE =         382.9310         RIVER LEAKAGE =           2.0841
            RECHARGE =        4173.7500              RECHARGE =           0.0000

           TOTAL OUT =        9454.8652             TOTAL OUT =           5.1840

            IN - OUT =       1.9531E-03              IN - OUT =       5.2452E-05

 PERCENT DISCREPANCY =           0.00     PERCENT DISCREPANCY =           0.00






         TIME SUMMARY AT END OF TIME STEP    1 IN STRESS PERIOD  250
                    SECONDS     MINUTES      HOURS       DAYS        YEARS
                    -----------------------------------------------------------
   TIME STEP LENGTH  86400.      1440.0      24.000      1.0000     2.73785E-03
 STRESS PERIOD TIME  86400.      1440.0      24.000      1.0000     2.73785E-03
         TOTAL TIME 2.16000E+07 3.60000E+05  6000.0      250.00     0.68446    
1
1
                            STRESS PERIOD NO.  251, LENGTH =   1.000000    
                            -----------------------------------------------

                              NUMBER OF TIME STEPS =     1

                               MULTIPLIER FOR DELT =     1.000

                            INITIAL TIME STEP SIZE =   1.000000    

 REUSING NON-PARAMETER RIVER REACHES FROM LAST STRESS PERIOD

      2 RIVER REACHES

                 RECHARGE =  2.400000E-03
 
 SOLVING FOR HEAD 

 OUTPUT CONTROL FOR STRESS PERIOD  251   TIME STEP    1
    SAVE HEAD FOR ALL LAYERS

 HEAD WILL BE SAVED ON UNIT   51 AT END OF TIME STEP    1, STRESS PERIOD  251
1
  VOLUMETRIC BUDGET FOR ENTIRE MODEL AT END OF TIME STEP    1, STRESS PERIOD 251
  ------------------------------------------------------------------------------

     CUMULATIVE VOLUMES      L**3       RATES FOR THIS TIME STEP      L**3/T
     ------------------                 ------------------------

           IN:                                      IN:
           ---                                      ---
             STORAGE =        4471.1533               STORAGE =           0.0000
       CONSTANT HEAD =           0.0000         CONSTANT HEAD =           0.0000
       RIVER LEAKAGE =         564.7135         RIVER LEAKAGE =           0.0000
            RECHARGE =        4443.0000              RECHARGE =          24.0000

            TOTAL IN =        9478.8672              TOTAL IN =          24.0000

          OUT:                                     OUT:
          ----                                     ----
             STORAGE =        4179.8633               STORAGE =          18.2852
       CONSTANT HEAD =         739.4573         CONSTANT HEAD =           2.8517
       RIVER LEAKAGE =         385.7943         RIVER LEAKAGE =           2.8632
            RECHARGE =        4173.7500              RECHARGE =           0.0000

           TOTAL OUT =        9478.8652             TOTAL OUT =          24.0001

            IN - OUT =       1.9531E-03              IN - OUT =      -1.2589E-04

 PERCENT DISCREPANCY =           0.00     PERCENT DISCREPANCY =          -0.00






         TIME SUMMARY AT END OF TIME STEP    1 IN STRESS PERIOD  251
                    SECONDS     MINUTES      HOURS       DAYS        YEARS
                    -----------------------------------------------------------
   TIME STEP LENGTH  86400.      1440.0      24.000      1.0000     2.73785E-03
 STRESS PERIOD TIME  86400.      1440.0      24.000      1.0000     2.73785E-03
         TOTAL TIME 2.16864E+07 3.61440E+05  6024.0      251.00     0.68720    
1
1
                            STRESS PERIOD NO.  252, LENGTH =   1.000000    
                            -----------------------------------------------

                              NUMBER OF TIME STEPS =     1

                               MULTIPLIER FOR DELT =     1.000

                            INITIAL TIME STEP SIZE =   1.000000    

 REUSING NON-PARAMETER RIVER REACHES FROM LAST STRESS PERIOD

      2 RIVER REACHES

                 RECHARGE =  4.200000E-03
 
 SOLVING FOR HEAD 

 OUTPUT CONTROL FOR STRESS PERIOD  252   TIME STEP    1
    SAVE HEAD FOR ALL LAYERS

 HEAD WILL BE SAVED ON UNIT   51 AT END OF TIME STEP    1, STRESS PERIOD  252
1
  VOLUMETRIC BUDGET FOR ENTIRE MODEL AT END OF TIME STEP    1, STRESS PERIOD 252
  ------------------------------------------------------------------------------

     CUMULATIVE VOLUMES      L**3       RATES FOR THIS TIME STEP      L**3/T
     ------------------                 ------------------------

           IN:                                      IN:
           ---                                      ---
             STORAGE =        4471.1533               STORAGE =           0.0000
       CONSTANT HEAD =           0.0000         CONSTANT HEAD =           0.0000
       RIVER LEAKAGE =         564.7135         RIVER LEAKAGE =           0.0000
            RECHARGE =        4485.0000              RECHARGE =          42.0000

            TOTAL IN =        9520.8672              TOTAL IN =          42.0000

          OUT:                                     OUT:
          ----                                     ----
             STORAGE =        4215.0552               STORAGE =          35.1921
       CONSTANT HEAD =         742.3132         CONSTANT HEAD =           2.8558
       RIVER LEAKAGE =         389.7462         RIVER LEAKAGE =           3.9520
            RECHARGE =        4173.7500              RECHARGE =           0.0000

           TOTAL OUT =        9520.8643             TOTAL OUT =          41.9998

            IN - OUT =       2.9297E-03              IN - OUT =       1.6022E-04

 PERCENT DISCREPANCY =           0.00     PERCENT DISCREPANCY =           0.00






         TIME SUMMARY AT END OF TIME STEP    1 IN STRESS PERIOD  252
                    SECONDS     MINUTES      HOURS       DAYS        YEARS
                    -----------------------------------------------------------
   TIME STEP LENGTH  86400.      1440.0      24.000      1.0000     2.73785E-03
 STRESS PERIOD TIME  86400.      1440.0      24.000      1.0000     2.73785E-03
         TOTAL TIME 2.17728E+07 3.62880E+05  6048.0      252.00     0.68994    
1
1
                            STRESS PERIOD NO.  253, LENGTH =   1.000000    
                            -----------------------------------------------

                              NUMBER OF TIME STEPS =     1

                               MULTIPLIER FOR DELT =     1.000

                            INITIAL TIME STEP SIZE =   1.000000    

 REUSING NON-PARAMETER RIVER REACHES FROM LAST STRESS PERIOD

      2 RIVER REACHES

                 RECHARGE = -3.000000E-04
 
 SOLVING FOR HEAD 

 OUTPUT CONTROL FOR STRESS PERIOD  253   TIME STEP    1
    SAVE HEAD FOR ALL LAYERS

 HEAD WILL BE SAVED ON UNIT   51 AT END OF TIME STEP    1, STRESS PERIOD  253
1
  VOLUMETRIC BUDGET FOR ENTIRE MODEL AT END OF TIME STEP    1, STRESS PERIOD 253
  ------------------------------------------------------------------------------

     CUMULATIVE VOLUMES      L**3       RATES FOR THIS TIME STEP      L**3/T
     ------------------                 ------------------------

           IN:                                      IN:
           ---                                      ---
             STORAGE =        4480.3804               STORAGE =           9.2272
       CONSTANT HEAD =           0.0000         CONSTANT HEAD =           0.0000
       RIVER LEAKAGE =         564.7135         RIVER LEAKAGE =           0.0000
            RECHARGE =        4485.0000              RECHARGE =           0.0000

            TOTAL IN =        9530.0938              TOTAL IN =           9.2272

          OUT:                                     OUT:
          ----                                     ----
             STORAGE =        4215.3149               STORAGE =           0.2598
       CONSTANT HEAD =         745.1721         CONSTANT HEAD =           2.8589
       RIVER LEAKAGE =         392.8550         RIVER LEAKAGE =           3.1088
            RECHARGE =        4176.7500              RECHARGE =           3.0000

           TOTAL OUT =        9530.0918             TOTAL OUT =           9.2274

            IN - OUT =       1.9531E-03              IN - OUT =      -2.1172E-04

 PERCENT DISCREPANCY =           0.00     PERCENT DISCREPANCY =          -0.00






         TIME SUMMARY AT END OF TIME STEP    1 IN STRESS PERIOD  253
                    SECONDS     MINUTES      HOURS       DAYS        YEARS
                    -----------------------------------------------------------
   TIME STEP LENGTH  86400.      1440.0      24.000      1.0000     2.73785E-03
 STRESS PERIOD TIME  86400.      1440.0      24.000      1.0000     2.73785E-03
         TOTAL TIME 2.18592E+07 3.64320E+05  6072.0      253.00     0.69268    
1
1
                            STRESS PERIOD NO.  254, LENGTH =   1.000000    
                            -----------------------------------------------

                              NUMBER OF TIME STEPS =     1

                               MULTIPLIER FOR DELT =     1.000

                            INITIAL TIME STEP SIZE =   1.000000    

 REUSING NON-PARAMETER RIVER REACHES FROM LAST STRESS PERIOD

      2 RIVER REACHES

                 RECHARGE = -8.000000E-04
 
 SOLVING FOR HEAD 

 OUTPUT CONTROL FOR STRESS PERIOD  254   TIME STEP    1
    SAVE HEAD FOR ALL LAYERS

 HEAD WILL BE SAVED ON UNIT   51 AT END OF TIME STEP    1, STRESS PERIOD  254
1
  VOLUMETRIC BUDGET FOR ENTIRE MODEL AT END OF TIME STEP    1, STRESS PERIOD 254
  ------------------------------------------------------------------------------

     CUMULATIVE VOLUMES      L**3       RATES FOR THIS TIME STEP      L**3/T
     ------------------                 ------------------------

           IN:                                      IN:
           ---                                      ---
             STORAGE =        4494.0210               STORAGE =          13.6406
       CONSTANT HEAD =           0.0000         CONSTANT HEAD =           0.0000
       RIVER LEAKAGE =         564.7135         RIVER LEAKAGE =           0.0000
            RECHARGE =        4485.0000              RECHARGE =           0.0000

            TOTAL IN =        9543.7344              TOTAL IN =          13.6406

          OUT:                                     OUT:
          ----                                     ----
             STORAGE =        4215.5630               STORAGE =           0.2480
       CONSTANT HEAD =         748.0334         CONSTANT HEAD =           2.8614
       RIVER LEAKAGE =         395.3863         RIVER LEAKAGE =           2.5313
            RECHARGE =        4184.7500              RECHARGE =           8.0000

           TOTAL OUT =        9543.7324             TOTAL OUT =          13.6407

            IN - OUT =       1.9531E-03              IN - OUT =      -1.3256E-04

 PERCENT DISCREPANCY =           0.00     PERCENT DISCREPANCY =          -0.00






         TIME SUMMARY AT END OF TIME STEP    1 IN STRESS PERIOD  254
                    SECONDS     MINUTES      HOURS       DAYS        YEARS
                    -----------------------------------------------------------
   TIME STEP LENGTH  86400.      1440.0      24.000      1.0000     2.73785E-03
 STRESS PERIOD TIME  86400.      1440.0      24.000      1.0000     2.73785E-03
         TOTAL TIME 2.19456E+07 3.65760E+05  6096.0      254.00     0.69541    
1
1
                            STRESS PERIOD NO.  255, LENGTH =   1.000000    
                            -----------------------------------------------

                              NUMBER OF TIME STEPS =     1

                               MULTIPLIER FOR DELT =     1.000

                            INITIAL TIME STEP SIZE =   1.000000    

 REUSING NON-PARAMETER RIVER REACHES FROM LAST STRESS PERIOD

      2 RIVER REACHES

                 RECHARGE = -2.000000E-04
 
 SOLVING FOR HEAD 

 OUTPUT CONTROL FOR STRESS PERIOD  255   TIME STEP    1
    SAVE HEAD FOR ALL LAYERS

 HEAD WILL BE SAVED ON UNIT   51 AT END OF TIME STEP    1, STRESS PERIOD  255
1
  VOLUMETRIC BUDGET FOR ENTIRE MODEL AT END OF TIME STEP    1, STRESS PERIOD 255
  ------------------------------------------------------------------------------

     CUMULATIVE VOLUMES      L**3       RATES FOR THIS TIME STEP      L**3/T
     ------------------                 ------------------------

           IN:                                      IN:
           ---                                      ---
             STORAGE =        4501.4888               STORAGE =           7.4675
       CONSTANT HEAD =           0.0000         CONSTANT HEAD =           0.0000
       RIVER LEAKAGE =         564.7135         RIVER LEAKAGE =           0.0000
            RECHARGE =        4485.0000              RECHARGE =           0.0000

            TOTAL IN =        9551.2021              TOTAL IN =           7.4675

          OUT:                                     OUT:
          ----                                     ----
             STORAGE =        4215.8032               STORAGE =           0.2404
       CONSTANT HEAD =         750.8973         CONSTANT HEAD =           2.8639
       RIVER LEAKAGE =         397.7497         RIVER LEAKAGE =           2.3634
            RECHARGE =        4186.7500              RECHARGE =           2.0000

           TOTAL OUT =        9551.2002             TOTAL OUT =           7.4677

            IN - OUT =       1.9531E-03              IN - OUT =      -1.3065E-04

 PERCENT DISCREPANCY =           0.00     PERCENT DISCREPANCY =          -0.00






         TIME SUMMARY AT END OF TIME STEP    1 IN STRESS PERIOD  255
                    SECONDS     MINUTES      HOURS       DAYS        YEARS
                    -----------------------------------------------------------
   TIME STEP LENGTH  86400.      1440.0      24.000      1.0000     2.73785E-03
 STRESS PERIOD TIME  86400.      1440.0      24.000      1.0000     2.73785E-03
         TOTAL TIME 2.20320E+07 3.67200E+05  6120.0      255.00     0.69815    
1
1
                            STRESS PERIOD NO.  256, LENGTH =   1.000000    
                            -----------------------------------------------

                              NUMBER OF TIME STEPS =     1

                               MULTIPLIER FOR DELT =     1.000

                            INITIAL TIME STEP SIZE =   1.000000    

 REUSING NON-PARAMETER RIVER REACHES FROM LAST STRESS PERIOD

      2 RIVER REACHES

                 RECHARGE =  9.000000E-04
 
 SOLVING FOR HEAD 

 OUTPUT CONTROL FOR STRESS PERIOD  256   TIME STEP    1
    SAVE HEAD FOR ALL LAYERS

 HEAD WILL BE SAVED ON UNIT   51 AT END OF TIME STEP    1, STRESS PERIOD  256
1
  VOLUMETRIC BUDGET FOR ENTIRE MODEL AT END OF TIME STEP    1, STRESS PERIOD 256
  ------------------------------------------------------------------------------

     CUMULATIVE VOLUMES      L**3       RATES FOR THIS TIME STEP      L**3/T
     ------------------                 ------------------------

           IN:                                      IN:
           ---                                      ---
             STORAGE =        4501.4888               STORAGE =           0.0000
       CONSTANT HEAD =           0.0000         CONSTANT HEAD =           0.0000
       RIVER LEAKAGE =         564.7135         RIVER LEAKAGE =           0.0000
            RECHARGE =        4494.0000              RECHARGE =           9.0000

            TOTAL IN =        9560.2021              TOTAL IN =           9.0000

          OUT:                                     OUT:
          ----                                     ----
             STORAGE =        4219.3491               STORAGE =           3.5458
       CONSTANT HEAD =         753.7640         CONSTANT HEAD =           2.8666
       RIVER LEAKAGE =         400.3372         RIVER LEAKAGE =           2.5874
            RECHARGE =        4186.7500              RECHARGE =           0.0000

           TOTAL OUT =        9560.2002             TOTAL OUT =           8.9999

            IN - OUT =       1.9531E-03              IN - OUT =       1.3447E-04

 PERCENT DISCREPANCY =           0.00     PERCENT DISCREPANCY =           0.00






         TIME SUMMARY AT END OF TIME STEP    1 IN STRESS PERIOD  256
                    SECONDS     MINUTES      HOURS       DAYS        YEARS
                    -----------------------------------------------------------
   TIME STEP LENGTH  86400.      1440.0      24.000      1.0000     2.73785E-03
 STRESS PERIOD TIME  86400.      1440.0      24.000      1.0000     2.73785E-03
         TOTAL TIME 2.21184E+07 3.68640E+05  6144.0      256.00     0.70089    
1
1
                            STRESS PERIOD NO.  257, LENGTH =   1.000000    
                            -----------------------------------------------

                              NUMBER OF TIME STEPS =     1

                               MULTIPLIER FOR DELT =     1.000

                            INITIAL TIME STEP SIZE =   1.000000    

 REUSING NON-PARAMETER RIVER REACHES FROM LAST STRESS PERIOD

      2 RIVER REACHES

                 RECHARGE =  2.400000E-03
 
 SOLVING FOR HEAD 

 OUTPUT CONTROL FOR STRESS PERIOD  257   TIME STEP    1
    SAVE HEAD FOR ALL LAYERS

 HEAD WILL BE SAVED ON UNIT   51 AT END OF TIME STEP    1, STRESS PERIOD  257
1
  VOLUMETRIC BUDGET FOR ENTIRE MODEL AT END OF TIME STEP    1, STRESS PERIOD 257
  ------------------------------------------------------------------------------

     CUMULATIVE VOLUMES      L**3       RATES FOR THIS TIME STEP      L**3/T
     ------------------                 ------------------------

           IN:                                      IN:
           ---                                      ---
             STORAGE =        4501.4888               STORAGE =           0.0000
       CONSTANT HEAD =           0.0000         CONSTANT HEAD =           0.0000
       RIVER LEAKAGE =         564.7135         RIVER LEAKAGE =           0.0000
            RECHARGE =        4518.0000              RECHARGE =          24.0000

            TOTAL IN =        9584.2021              TOTAL IN =          24.0000

          OUT:                                     OUT:
          ----                                     ----
             STORAGE =        4237.2686               STORAGE =          17.9196
       CONSTANT HEAD =         756.6340         CONSTANT HEAD =           2.8700
       RIVER LEAKAGE =         403.5478         RIVER LEAKAGE =           3.2106
            RECHARGE =        4186.7500              RECHARGE =           0.0000

           TOTAL OUT =        9584.2002             TOTAL OUT =          24.0002

            IN - OUT =       1.9531E-03              IN - OUT =      -1.6785E-04

 PERCENT DISCREPANCY =           0.00     PERCENT DISCREPANCY =          -0.00






         TIME SUMMARY AT END OF TIME STEP    1 IN STRESS PERIOD  257
                    SECONDS     MINUTES      HOURS       DAYS        YEARS
                    -----------------------------------------------------------
   TIME STEP LENGTH  86400.      1440.0      24.000      1.0000     2.73785E-03
 STRESS PERIOD TIME  86400.      1440.0      24.000      1.0000     2.73785E-03
         TOTAL TIME 2.22048E+07 3.70080E+05  6168.0      257.00     0.70363    
1
1
                            STRESS PERIOD NO.  258, LENGTH =   1.000000    
                            -----------------------------------------------

                              NUMBER OF TIME STEPS =     1

                               MULTIPLIER FOR DELT =     1.000

                            INITIAL TIME STEP SIZE =   1.000000    

 REUSING NON-PARAMETER RIVER REACHES FROM LAST STRESS PERIOD

      2 RIVER REACHES

                 RECHARGE =  3.400000E-03
 
 SOLVING FOR HEAD 

 OUTPUT CONTROL FOR STRESS PERIOD  258   TIME STEP    1
    SAVE HEAD FOR ALL LAYERS

 HEAD WILL BE SAVED ON UNIT   51 AT END OF TIME STEP    1, STRESS PERIOD  258
1
  VOLUMETRIC BUDGET FOR ENTIRE MODEL AT END OF TIME STEP    1, STRESS PERIOD 258
  ------------------------------------------------------------------------------

     CUMULATIVE VOLUMES      L**3       RATES FOR THIS TIME STEP      L**3/T
     ------------------                 ------------------------

           IN:                                      IN:
           ---                                      ---
             STORAGE =        4501.4888               STORAGE =           0.0000
       CONSTANT HEAD =           0.0000         CONSTANT HEAD =           0.0000
       RIVER LEAKAGE =         564.7135         RIVER LEAKAGE =           0.0000
            RECHARGE =        4552.0000              RECHARGE =          34.0000

            TOTAL IN =        9618.2021              TOTAL IN =          34.0000

          OUT:                                     OUT:
          ----                                     ----
             STORAGE =        4264.4463               STORAGE =          27.1777
       CONSTANT HEAD =         759.5079         CONSTANT HEAD =           2.8740
       RIVER LEAKAGE =         407.4960         RIVER LEAKAGE =           3.9482
            RECHARGE =        4186.7500              RECHARGE =           0.0000

           TOTAL OUT =        9618.2002             TOTAL OUT =          33.9999

            IN - OUT =       1.9531E-03              IN - OUT =       9.1553E-05

 PERCENT DISCREPANCY =           0.00     PERCENT DISCREPANCY =           0.00






         TIME SUMMARY AT END OF TIME STEP    1 IN STRESS PERIOD  258
                    SECONDS     MINUTES      HOURS       DAYS        YEARS
                    -----------------------------------------------------------
   TIME STEP LENGTH  86400.      1440.0      24.000      1.0000     2.73785E-03
 STRESS PERIOD TIME  86400.      1440.0      24.000      1.0000     2.73785E-03
         TOTAL TIME 2.22912E+07 3.71520E+05  6192.0      258.00     0.70637    
1
1
                            STRESS PERIOD NO.  259, LENGTH =   1.000000    
                            -----------------------------------------------

                              NUMBER OF TIME STEPS =     1

                               MULTIPLIER FOR DELT =     1.000

                            INITIAL TIME STEP SIZE =   1.000000    

 REUSING NON-PARAMETER RIVER REACHES FROM LAST STRESS PERIOD

      2 RIVER REACHES

                 RECHARGE =  7.200000E-03
 
 SOLVING FOR HEAD 

 OUTPUT CONTROL FOR STRESS PERIOD  259   TIME STEP    1
    SAVE HEAD FOR ALL LAYERS

 HEAD WILL BE SAVED ON UNIT   51 AT END OF TIME STEP    1, STRESS PERIOD  259
1
  VOLUMETRIC BUDGET FOR ENTIRE MODEL AT END OF TIME STEP    1, STRESS PERIOD 259
  ------------------------------------------------------------------------------

     CUMULATIVE VOLUMES      L**3       RATES FOR THIS TIME STEP      L**3/T
     ------------------                 ------------------------

           IN:                                      IN:
           ---                                      ---
             STORAGE =        4501.4888               STORAGE =           0.0000
       CONSTANT HEAD =           0.0000         CONSTANT HEAD =           0.0000
       RIVER LEAKAGE =         564.7135         RIVER LEAKAGE =           0.0000
            RECHARGE =        4624.0000              RECHARGE =          72.0000

            TOTAL IN =        9690.2021              TOTAL IN =          72.0000

          OUT:                                     OUT:
          ----                                     ----
             STORAGE =        4327.7700               STORAGE =          63.3239
       CONSTANT HEAD =         762.3875         CONSTANT HEAD =           2.8796
       RIVER LEAKAGE =         413.2925         RIVER LEAKAGE =           5.7965
            RECHARGE =        4186.7500              RECHARGE =           0.0000

           TOTAL OUT =        9690.2002             TOTAL OUT =          72.0000

            IN - OUT =       1.9531E-03              IN - OUT =       3.0518E-05

 PERCENT DISCREPANCY =           0.00     PERCENT DISCREPANCY =           0.00






         TIME SUMMARY AT END OF TIME STEP    1 IN STRESS PERIOD  259
                    SECONDS     MINUTES      HOURS       DAYS        YEARS
                    -----------------------------------------------------------
   TIME STEP LENGTH  86400.      1440.0      24.000      1.0000     2.73785E-03
 STRESS PERIOD TIME  86400.      1440.0      24.000      1.0000     2.73785E-03
         TOTAL TIME 2.23776E+07 3.72960E+05  6216.0      259.00     0.70910    
1
1
                            STRESS PERIOD NO.  260, LENGTH =   1.000000    
                            -----------------------------------------------

                              NUMBER OF TIME STEPS =     1

                               MULTIPLIER FOR DELT =     1.000

                            INITIAL TIME STEP SIZE =   1.000000    

 REUSING NON-PARAMETER RIVER REACHES FROM LAST STRESS PERIOD

      2 RIVER REACHES

                 RECHARGE =  6.000000E-04
 
 SOLVING FOR HEAD 

 OUTPUT CONTROL FOR STRESS PERIOD  260   TIME STEP    1
    SAVE HEAD FOR ALL LAYERS

 HEAD WILL BE SAVED ON UNIT   51 AT END OF TIME STEP    1, STRESS PERIOD  260
1
  VOLUMETRIC BUDGET FOR ENTIRE MODEL AT END OF TIME STEP    1, STRESS PERIOD 260
  ------------------------------------------------------------------------------

     CUMULATIVE VOLUMES      L**3       RATES FOR THIS TIME STEP      L**3/T
     ------------------                 ------------------------

           IN:                                      IN:
           ---                                      ---
             STORAGE =        4504.1313               STORAGE =           2.6427
       CONSTANT HEAD =           0.0000         CONSTANT HEAD =           0.0000
       RIVER LEAKAGE =         564.7135         RIVER LEAKAGE =           0.0000
            RECHARGE =        4630.0000              RECHARGE =           6.0000

            TOTAL IN =        9698.8447              TOTAL IN =           8.6427

          OUT:                                     OUT:
          ----                                     ----
             STORAGE =        4328.7974               STORAGE =           1.0275
       CONSTANT HEAD =         765.2712         CONSTANT HEAD =           2.8838
       RIVER LEAKAGE =         418.0240         RIVER LEAKAGE =           4.7315
            RECHARGE =        4186.7500              RECHARGE =           0.0000

           TOTAL OUT =        9698.8418             TOTAL OUT =           8.6428

            IN - OUT =       2.9297E-03              IN - OUT =      -9.3460E-05

 PERCENT DISCREPANCY =           0.00     PERCENT DISCREPANCY =          -0.00






         TIME SUMMARY AT END OF TIME STEP    1 IN STRESS PERIOD  260
                    SECONDS     MINUTES      HOURS       DAYS        YEARS
                    -----------------------------------------------------------
   TIME STEP LENGTH  86400.      1440.0      24.000      1.0000     2.73785E-03
 STRESS PERIOD TIME  86400.      1440.0      24.000      1.0000     2.73785E-03
         TOTAL TIME 2.24640E+07 3.74400E+05  6240.0      260.00     0.71184    
1
1
                            STRESS PERIOD NO.  261, LENGTH =   1.000000    
                            -----------------------------------------------

                              NUMBER OF TIME STEPS =     1

                               MULTIPLIER FOR DELT =     1.000

                            INITIAL TIME STEP SIZE =   1.000000    

 REUSING NON-PARAMETER RIVER REACHES FROM LAST STRESS PERIOD

      2 RIVER REACHES

                 RECHARGE =  1.000000E-04
 
 SOLVING FOR HEAD 

 OUTPUT CONTROL FOR STRESS PERIOD  261   TIME STEP    1
    SAVE HEAD FOR ALL LAYERS

 HEAD WILL BE SAVED ON UNIT   51 AT END OF TIME STEP    1, STRESS PERIOD  261
1
  VOLUMETRIC BUDGET FOR ENTIRE MODEL AT END OF TIME STEP    1, STRESS PERIOD 261
  ------------------------------------------------------------------------------

     CUMULATIVE VOLUMES      L**3       RATES FOR THIS TIME STEP      L**3/T
     ------------------                 ------------------------

           IN:                                      IN:
           ---                                      ---
             STORAGE =        4510.4185               STORAGE =           6.2871
       CONSTANT HEAD =           0.0000         CONSTANT HEAD =           0.0000
       RIVER LEAKAGE =         564.7135         RIVER LEAKAGE =           0.0000
            RECHARGE =        4631.0000              RECHARGE =           1.0000

            TOTAL IN =        9706.1318              TOTAL IN =           7.2871

          OUT:                                     OUT:
          ----                                     ----
             STORAGE =        4329.0815               STORAGE =           0.2842
       CONSTANT HEAD =         768.1586         CONSTANT HEAD =           2.8874
       RIVER LEAKAGE =         422.1394         RIVER LEAKAGE =           4.1154
            RECHARGE =        4186.7500              RECHARGE =           0.0000

           TOTAL OUT =        9706.1289             TOTAL OUT =           7.2870

            IN - OUT =       2.9297E-03              IN - OUT =       6.1989E-05

 PERCENT DISCREPANCY =           0.00     PERCENT DISCREPANCY =           0.00






         TIME SUMMARY AT END OF TIME STEP    1 IN STRESS PERIOD  261
                    SECONDS     MINUTES      HOURS       DAYS        YEARS
                    -----------------------------------------------------------
   TIME STEP LENGTH  86400.      1440.0      24.000      1.0000     2.73785E-03
 STRESS PERIOD TIME  86400.      1440.0      24.000      1.0000     2.73785E-03
         TOTAL TIME 2.25504E+07 3.75840E+05  6264.0      261.00     0.71458    
1
1
                            STRESS PERIOD NO.  262, LENGTH =   1.000000    
                            -----------------------------------------------

                              NUMBER OF TIME STEPS =     1

                               MULTIPLIER FOR DELT =     1.000

                            INITIAL TIME STEP SIZE =   1.000000    

 REUSING NON-PARAMETER RIVER REACHES FROM LAST STRESS PERIOD

      2 RIVER REACHES

                 RECHARGE =  2.100000E-03
 
 SOLVING FOR HEAD 

 OUTPUT CONTROL FOR STRESS PERIOD  262   TIME STEP    1
    SAVE HEAD FOR ALL LAYERS

 HEAD WILL BE SAVED ON UNIT   51 AT END OF TIME STEP    1, STRESS PERIOD  262
1
  VOLUMETRIC BUDGET FOR ENTIRE MODEL AT END OF TIME STEP    1, STRESS PERIOD 262
  ------------------------------------------------------------------------------

     CUMULATIVE VOLUMES      L**3       RATES FOR THIS TIME STEP      L**3/T
     ------------------                 ------------------------

           IN:                                      IN:
           ---                                      ---
             STORAGE =        4510.4185               STORAGE =           0.0000
       CONSTANT HEAD =           0.0000         CONSTANT HEAD =           0.0000
       RIVER LEAKAGE =         564.7135         RIVER LEAKAGE =           0.0000
            RECHARGE =        4652.0000              RECHARGE =          21.0000

            TOTAL IN =        9727.1318              TOTAL IN =          21.0000

          OUT:                                     OUT:
          ----                                     ----
             STORAGE =        4342.7393               STORAGE =          13.6577
       CONSTANT HEAD =         771.0501         CONSTANT HEAD =           2.8915
       RIVER LEAKAGE =         426.5901         RIVER LEAKAGE =           4.4507
            RECHARGE =        4186.7500              RECHARGE =           0.0000

           TOTAL OUT =        9727.1299             TOTAL OUT =          20.9999

            IN - OUT =       1.9531E-03              IN - OUT =       1.3351E-04

 PERCENT DISCREPANCY =           0.00     PERCENT DISCREPANCY =           0.00






         TIME SUMMARY AT END OF TIME STEP    1 IN STRESS PERIOD  262
                    SECONDS     MINUTES      HOURS       DAYS        YEARS
                    -----------------------------------------------------------
   TIME STEP LENGTH  86400.      1440.0      24.000      1.0000     2.73785E-03
 STRESS PERIOD TIME  86400.      1440.0      24.000      1.0000     2.73785E-03
         TOTAL TIME 2.26368E+07 3.77280E+05  6288.0      262.00     0.71732    
1
1
                            STRESS PERIOD NO.  263, LENGTH =   1.000000    
                            -----------------------------------------------

                              NUMBER OF TIME STEPS =     1

                               MULTIPLIER FOR DELT =     1.000

                            INITIAL TIME STEP SIZE =   1.000000    

 REUSING NON-PARAMETER RIVER REACHES FROM LAST STRESS PERIOD

      2 RIVER REACHES

                 RECHARGE =  1.700000E-03
 
 SOLVING FOR HEAD 

 OUTPUT CONTROL FOR STRESS PERIOD  263   TIME STEP    1
    SAVE HEAD FOR ALL LAYERS

 HEAD WILL BE SAVED ON UNIT   51 AT END OF TIME STEP    1, STRESS PERIOD  263
1
  VOLUMETRIC BUDGET FOR ENTIRE MODEL AT END OF TIME STEP    1, STRESS PERIOD 263
  ------------------------------------------------------------------------------

     CUMULATIVE VOLUMES      L**3       RATES FOR THIS TIME STEP      L**3/T
     ------------------                 ------------------------

           IN:                                      IN:
           ---                                      ---
             STORAGE =        4510.4185               STORAGE =           0.0000
       CONSTANT HEAD =           0.0000         CONSTANT HEAD =           0.0000
       RIVER LEAKAGE =         564.7135         RIVER LEAKAGE =           0.0000
            RECHARGE =        4669.0000              RECHARGE =          17.0000

            TOTAL IN =        9744.1318              TOTAL IN =          17.0000

          OUT:                                     OUT:
          ----                                     ----
             STORAGE =        4352.3550               STORAGE =           9.6156
       CONSTANT HEAD =         773.9456         CONSTANT HEAD =           2.8955
       RIVER LEAKAGE =         431.0792         RIVER LEAKAGE =           4.4891
            RECHARGE =        4186.7500              RECHARGE =           0.0000

           TOTAL OUT =        9744.1299             TOTAL OUT =          17.0002

            IN - OUT =       1.9531E-03              IN - OUT =      -1.9264E-04

 PERCENT DISCREPANCY =           0.00     PERCENT DISCREPANCY =          -0.00






         TIME SUMMARY AT END OF TIME STEP    1 IN STRESS PERIOD  263
                    SECONDS     MINUTES      HOURS       DAYS        YEARS
                    -----------------------------------------------------------
   TIME STEP LENGTH  86400.      1440.0      24.000      1.0000     2.73785E-03
 STRESS PERIOD TIME  86400.      1440.0      24.000      1.0000     2.73785E-03
         TOTAL TIME 2.27232E+07 3.78720E+05  6312.0      263.00     0.72005    
1
1
                            STRESS PERIOD NO.  264, LENGTH =   1.000000    
                            -----------------------------------------------

                              NUMBER OF TIME STEPS =     1

                               MULTIPLIER FOR DELT =     1.000

                            INITIAL TIME STEP SIZE =   1.000000    

 REUSING NON-PARAMETER RIVER REACHES FROM LAST STRESS PERIOD

      2 RIVER REACHES

                 RECHARGE = -5.000000E-04
 
 SOLVING FOR HEAD 

 OUTPUT CONTROL FOR STRESS PERIOD  264   TIME STEP    1
    SAVE HEAD FOR ALL LAYERS

 HEAD WILL BE SAVED ON UNIT   51 AT END OF TIME STEP    1, STRESS PERIOD  264
1
  VOLUMETRIC BUDGET FOR ENTIRE MODEL AT END OF TIME STEP    1, STRESS PERIOD 264
  ------------------------------------------------------------------------------

     CUMULATIVE VOLUMES      L**3       RATES FOR THIS TIME STEP      L**3/T
     ------------------                 ------------------------

           IN:                                      IN:
           ---                                      ---
             STORAGE =        4522.3652               STORAGE =          11.9467
       CONSTANT HEAD =           0.0000         CONSTANT HEAD =           0.0000
       RIVER LEAKAGE =         564.7135         RIVER LEAKAGE =           0.0000
            RECHARGE =        4669.0000              RECHARGE =           0.0000

            TOTAL IN =        9756.0781              TOTAL IN =          11.9467

          OUT:                                     OUT:
          ----                                     ----
             STORAGE =        4352.6343               STORAGE =           0.2795
       CONSTANT HEAD =         776.8444         CONSTANT HEAD =           2.8988
       RIVER LEAKAGE =         434.8475         RIVER LEAKAGE =           3.7683
            RECHARGE =        4191.7500              RECHARGE =           5.0000

           TOTAL OUT =        9756.0762             TOTAL OUT =          11.9466

            IN - OUT =       1.9531E-03              IN - OUT =       1.1349E-04

 PERCENT DISCREPANCY =           0.00     PERCENT DISCREPANCY =           0.00






         TIME SUMMARY AT END OF TIME STEP    1 IN STRESS PERIOD  264
                    SECONDS     MINUTES      HOURS       DAYS        YEARS
                    -----------------------------------------------------------
   TIME STEP LENGTH  86400.      1440.0      24.000      1.0000     2.73785E-03
 STRESS PERIOD TIME  86400.      1440.0      24.000      1.0000     2.73785E-03
         TOTAL TIME 2.28096E+07 3.80160E+05  6336.0      264.00     0.72279    
1
1
                            STRESS PERIOD NO.  265, LENGTH =   1.000000    
                            -----------------------------------------------

                              NUMBER OF TIME STEPS =     1

                               MULTIPLIER FOR DELT =     1.000

                            INITIAL TIME STEP SIZE =   1.000000    

 REUSING NON-PARAMETER RIVER REACHES FROM LAST STRESS PERIOD

      2 RIVER REACHES

                 RECHARGE =  4.700000E-03
 
 SOLVING FOR HEAD 

 OUTPUT CONTROL FOR STRESS PERIOD  265   TIME STEP    1
    SAVE HEAD FOR ALL LAYERS

 HEAD WILL BE SAVED ON UNIT   51 AT END OF TIME STEP    1, STRESS PERIOD  265
1
  VOLUMETRIC BUDGET FOR ENTIRE MODEL AT END OF TIME STEP    1, STRESS PERIOD 265
  ------------------------------------------------------------------------------

     CUMULATIVE VOLUMES      L**3       RATES FOR THIS TIME STEP      L**3/T
     ------------------                 ------------------------

           IN:                                      IN:
           ---                                      ---
             STORAGE =        4522.3652               STORAGE =           0.0000
       CONSTANT HEAD =           0.0000         CONSTANT HEAD =           0.0000
       RIVER LEAKAGE =         564.7135         RIVER LEAKAGE =           0.0000
            RECHARGE =        4716.0000              RECHARGE =          47.0000

            TOTAL IN =        9803.0781              TOTAL IN =          47.0000

          OUT:                                     OUT:
          ----                                     ----
             STORAGE =        4391.5674               STORAGE =          38.9329
       CONSTANT HEAD =         779.7479         CONSTANT HEAD =           2.9036
       RIVER LEAKAGE =         440.0109         RIVER LEAKAGE =           5.1634
            RECHARGE =        4191.7500              RECHARGE =           0.0000

           TOTAL OUT =        9803.0762             TOTAL OUT =          46.9999

            IN - OUT =       1.9531E-03              IN - OUT =       7.6294E-05

 PERCENT DISCREPANCY =           0.00     PERCENT DISCREPANCY =           0.00






         TIME SUMMARY AT END OF TIME STEP    1 IN STRESS PERIOD  265
                    SECONDS     MINUTES      HOURS       DAYS        YEARS
                    -----------------------------------------------------------
   TIME STEP LENGTH  86400.      1440.0      24.000      1.0000     2.73785E-03
 STRESS PERIOD TIME  86400.      1440.0      24.000      1.0000     2.73785E-03
         TOTAL TIME 2.28960E+07 3.81600E+05  6360.0      265.00     0.72553    
1
1
                            STRESS PERIOD NO.  266, LENGTH =   1.000000    
                            -----------------------------------------------

                              NUMBER OF TIME STEPS =     1

                               MULTIPLIER FOR DELT =     1.000

                            INITIAL TIME STEP SIZE =   1.000000    

 REUSING NON-PARAMETER RIVER REACHES FROM LAST STRESS PERIOD

      2 RIVER REACHES

                 RECHARGE =  1.300000E-03
 
 SOLVING FOR HEAD 

 OUTPUT CONTROL FOR STRESS PERIOD  266   TIME STEP    1
    SAVE HEAD FOR ALL LAYERS

 HEAD WILL BE SAVED ON UNIT   51 AT END OF TIME STEP    1, STRESS PERIOD  266
1
  VOLUMETRIC BUDGET FOR ENTIRE MODEL AT END OF TIME STEP    1, STRESS PERIOD 266
  ------------------------------------------------------------------------------

     CUMULATIVE VOLUMES      L**3       RATES FOR THIS TIME STEP      L**3/T
     ------------------                 ------------------------

           IN:                                      IN:
           ---                                      ---
             STORAGE =        4522.7729               STORAGE =           0.4079
       CONSTANT HEAD =           0.0000         CONSTANT HEAD =           0.0000
       RIVER LEAKAGE =         564.7135         RIVER LEAKAGE =           0.0000
            RECHARGE =        4729.0000              RECHARGE =          13.0000

            TOTAL IN =        9816.4863              TOTAL IN =          13.4079

          OUT:                                     OUT:
          ----                                     ----
             STORAGE =        4397.2764               STORAGE =           5.7092
       CONSTANT HEAD =         782.6556         CONSTANT HEAD =           2.9077
       RIVER LEAKAGE =         444.8019         RIVER LEAKAGE =           4.7910
            RECHARGE =        4191.7500              RECHARGE =           0.0000

           TOTAL OUT =        9816.4844             TOTAL OUT =          13.4079

            IN - OUT =       1.9531E-03              IN - OUT =       9.5367E-07

 PERCENT DISCREPANCY =           0.00     PERCENT DISCREPANCY =           0.00






         TIME SUMMARY AT END OF TIME STEP    1 IN STRESS PERIOD  266
                    SECONDS     MINUTES      HOURS       DAYS        YEARS
                    -----------------------------------------------------------
   TIME STEP LENGTH  86400.      1440.0      24.000      1.0000     2.73785E-03
 STRESS PERIOD TIME  86400.      1440.0      24.000      1.0000     2.73785E-03
         TOTAL TIME 2.29824E+07 3.83040E+05  6384.0      266.00     0.72827    
1
1
                            STRESS PERIOD NO.  267, LENGTH =   1.000000    
                            -----------------------------------------------

                              NUMBER OF TIME STEPS =     1

                               MULTIPLIER FOR DELT =     1.000

                            INITIAL TIME STEP SIZE =   1.000000    

 REUSING NON-PARAMETER RIVER REACHES FROM LAST STRESS PERIOD

      2 RIVER REACHES

                 RECHARGE =  9.600000E-03
 
 SOLVING FOR HEAD 

 OUTPUT CONTROL FOR STRESS PERIOD  267   TIME STEP    1
    SAVE HEAD FOR ALL LAYERS

 HEAD WILL BE SAVED ON UNIT   51 AT END OF TIME STEP    1, STRESS PERIOD  267
1
  VOLUMETRIC BUDGET FOR ENTIRE MODEL AT END OF TIME STEP    1, STRESS PERIOD 267
  ------------------------------------------------------------------------------

     CUMULATIVE VOLUMES      L**3       RATES FOR THIS TIME STEP      L**3/T
     ------------------                 ------------------------

           IN:                                      IN:
           ---                                      ---
             STORAGE =        4522.7729               STORAGE =           0.0000
       CONSTANT HEAD =           0.0000         CONSTANT HEAD =           0.0000
       RIVER LEAKAGE =         564.7135         RIVER LEAKAGE =           0.0000
            RECHARGE =        4825.0000              RECHARGE =          96.0000

            TOTAL IN =        9912.4863              TOTAL IN =          96.0000

          OUT:                                     OUT:
          ----                                     ----
             STORAGE =        4482.7769               STORAGE =          85.5006
       CONSTANT HEAD =         785.5703         CONSTANT HEAD =           2.9147
       RIVER LEAKAGE =         452.3868         RIVER LEAKAGE =           7.5849
            RECHARGE =        4191.7500              RECHARGE =           0.0000

           TOTAL OUT =        9912.4844             TOTAL OUT =          96.0002

            IN - OUT =       1.9531E-03              IN - OUT =      -1.8311E-04

 PERCENT DISCREPANCY =           0.00     PERCENT DISCREPANCY =          -0.00






         TIME SUMMARY AT END OF TIME STEP    1 IN STRESS PERIOD  267
                    SECONDS     MINUTES      HOURS       DAYS        YEARS
                    -----------------------------------------------------------
   TIME STEP LENGTH  86400.      1440.0      24.000      1.0000     2.73785E-03
 STRESS PERIOD TIME  86400.      1440.0      24.000      1.0000     2.73785E-03
         TOTAL TIME 2.30688E+07 3.84480E+05  6408.0      267.00     0.73101    
1
1
                            STRESS PERIOD NO.  268, LENGTH =   1.000000    
                            -----------------------------------------------

                              NUMBER OF TIME STEPS =     1

                               MULTIPLIER FOR DELT =     1.000

                            INITIAL TIME STEP SIZE =   1.000000    

 REUSING NON-PARAMETER RIVER REACHES FROM LAST STRESS PERIOD

      2 RIVER REACHES

                 RECHARGE =  1.200000E-03
 
 SOLVING FOR HEAD 

 OUTPUT CONTROL FOR STRESS PERIOD  268   TIME STEP    1
    SAVE HEAD FOR ALL LAYERS

 HEAD WILL BE SAVED ON UNIT   51 AT END OF TIME STEP    1, STRESS PERIOD  268
1
  VOLUMETRIC BUDGET FOR ENTIRE MODEL AT END OF TIME STEP    1, STRESS PERIOD 268
  ------------------------------------------------------------------------------

     CUMULATIVE VOLUMES      L**3       RATES FOR THIS TIME STEP      L**3/T
     ------------------                 ------------------------

           IN:                                      IN:
           ---                                      ---
             STORAGE =        4524.7534               STORAGE =           1.9803
       CONSTANT HEAD =           0.0000         CONSTANT HEAD =           0.0000
       RIVER LEAKAGE =         564.7135         RIVER LEAKAGE =           0.0000
            RECHARGE =        4837.0000              RECHARGE =          12.0000

            TOTAL IN =        9926.4668              TOTAL IN =          13.9803

          OUT:                                     OUT:
          ----                                     ----
             STORAGE =        4487.4365               STORAGE =           4.6595
       CONSTANT HEAD =         788.4902         CONSTANT HEAD =           2.9199
       RIVER LEAKAGE =         458.7878         RIVER LEAKAGE =           6.4009
            RECHARGE =        4191.7500              RECHARGE =           0.0000

           TOTAL OUT =        9926.4648             TOTAL OUT =          13.9803

            IN - OUT =       1.9531E-03              IN - OUT =      -4.0054E-05

 PERCENT DISCREPANCY =           0.00     PERCENT DISCREPANCY =          -0.00






         TIME SUMMARY AT END OF TIME STEP    1 IN STRESS PERIOD  268
                    SECONDS     MINUTES      HOURS       DAYS        YEARS
                    -----------------------------------------------------------
   TIME STEP LENGTH  86400.      1440.0      24.000      1.0000     2.73785E-03
 STRESS PERIOD TIME  86400.      1440.0      24.000      1.0000     2.73785E-03
         TOTAL TIME 2.31552E+07 3.85920E+05  6432.0      268.00     0.73374    
1
1
                            STRESS PERIOD NO.  269, LENGTH =   1.000000    
                            -----------------------------------------------

                              NUMBER OF TIME STEPS =     1

                               MULTIPLIER FOR DELT =     1.000

                            INITIAL TIME STEP SIZE =   1.000000    

 REUSING NON-PARAMETER RIVER REACHES FROM LAST STRESS PERIOD

      2 RIVER REACHES

                 RECHARGE =  8.000000E-04
 
 SOLVING FOR HEAD 

 OUTPUT CONTROL FOR STRESS PERIOD  269   TIME STEP    1
    SAVE HEAD FOR ALL LAYERS

 HEAD WILL BE SAVED ON UNIT   51 AT END OF TIME STEP    1, STRESS PERIOD  269
1
  VOLUMETRIC BUDGET FOR ENTIRE MODEL AT END OF TIME STEP    1, STRESS PERIOD 269
  ------------------------------------------------------------------------------

     CUMULATIVE VOLUMES      L**3       RATES FOR THIS TIME STEP      L**3/T
     ------------------                 ------------------------

           IN:                                      IN:
           ---                                      ---
             STORAGE =        4527.3301               STORAGE =           2.5764
       CONSTANT HEAD =           0.0000         CONSTANT HEAD =           0.0000
       RIVER LEAKAGE =         564.7135         RIVER LEAKAGE =           0.0000
            RECHARGE =        4845.0000              RECHARGE =           8.0000

            TOTAL IN =        9937.0430              TOTAL IN =          10.5764

          OUT:                                     OUT:
          ----                                     ----
             STORAGE =        4489.2856               STORAGE =           1.8493
       CONSTANT HEAD =         791.4147         CONSTANT HEAD =           2.9246
       RIVER LEAKAGE =         464.5902         RIVER LEAKAGE =           5.8024
            RECHARGE =        4191.7500              RECHARGE =           0.0000

           TOTAL OUT =        9937.0410             TOTAL OUT =          10.5763

            IN - OUT =       1.9531E-03              IN - OUT =       1.2779E-04

 PERCENT DISCREPANCY =           0.00     PERCENT DISCREPANCY =           0.00






         TIME SUMMARY AT END OF TIME STEP    1 IN STRESS PERIOD  269
                    SECONDS     MINUTES      HOURS       DAYS        YEARS
                    -----------------------------------------------------------
   TIME STEP LENGTH  86400.      1440.0      24.000      1.0000     2.73785E-03
 STRESS PERIOD TIME  86400.      1440.0      24.000      1.0000     2.73785E-03
         TOTAL TIME 2.32416E+07 3.87360E+05  6456.0      269.00     0.73648    
1
1
                            STRESS PERIOD NO.  270, LENGTH =   1.000000    
                            -----------------------------------------------

                              NUMBER OF TIME STEPS =     1

                               MULTIPLIER FOR DELT =     1.000

                            INITIAL TIME STEP SIZE =   1.000000    

 REUSING NON-PARAMETER RIVER REACHES FROM LAST STRESS PERIOD

      2 RIVER REACHES

                 RECHARGE =  6.000000E-04
 
 SOLVING FOR HEAD 

 OUTPUT CONTROL FOR STRESS PERIOD  270   TIME STEP    1
    SAVE HEAD FOR ALL LAYERS

 HEAD WILL BE SAVED ON UNIT   51 AT END OF TIME STEP    1, STRESS PERIOD  270
1
  VOLUMETRIC BUDGET FOR ENTIRE MODEL AT END OF TIME STEP    1, STRESS PERIOD 270
  ------------------------------------------------------------------------------

     CUMULATIVE VOLUMES      L**3       RATES FOR THIS TIME STEP      L**3/T
     ------------------                 ------------------------

           IN:                                      IN:
           ---                                      ---
             STORAGE =        4530.4727               STORAGE =           3.1427
       CONSTANT HEAD =           0.0000         CONSTANT HEAD =           0.0000
       RIVER LEAKAGE =         564.7135         RIVER LEAKAGE =           0.0000
            RECHARGE =        4851.0000              RECHARGE =           6.0000

            TOTAL IN =        9946.1855              TOTAL IN =           9.1427

          OUT:                                     OUT:
          ----                                     ----
             STORAGE =        4490.1060               STORAGE =           0.8201
       CONSTANT HEAD =         794.3437         CONSTANT HEAD =           2.9289
       RIVER LEAKAGE =         469.9839         RIVER LEAKAGE =           5.3937
            RECHARGE =        4191.7500              RECHARGE =           0.0000

           TOTAL OUT =        9946.1836             TOTAL OUT =           9.1428

            IN - OUT =       1.9531E-03              IN - OUT =      -8.9645E-05

 PERCENT DISCREPANCY =           0.00     PERCENT DISCREPANCY =          -0.00






         TIME SUMMARY AT END OF TIME STEP    1 IN STRESS PERIOD  270
                    SECONDS     MINUTES      HOURS       DAYS        YEARS
                    -----------------------------------------------------------
   TIME STEP LENGTH  86400.      1440.0      24.000      1.0000     2.73785E-03
 STRESS PERIOD TIME  86400.      1440.0      24.000      1.0000     2.73785E-03
         TOTAL TIME 2.33280E+07 3.88800E+05  6480.0      270.00     0.73922    
1
1
                            STRESS PERIOD NO.  271, LENGTH =   1.000000    
                            -----------------------------------------------

                              NUMBER OF TIME STEPS =     1

                               MULTIPLIER FOR DELT =     1.000

                            INITIAL TIME STEP SIZE =   1.000000    

 REUSING NON-PARAMETER RIVER REACHES FROM LAST STRESS PERIOD

      2 RIVER REACHES

                 RECHARGE =  1.300000E-03
 
 SOLVING FOR HEAD 

 OUTPUT CONTROL FOR STRESS PERIOD  271   TIME STEP    1
    SAVE HEAD FOR ALL LAYERS

 HEAD WILL BE SAVED ON UNIT   51 AT END OF TIME STEP    1, STRESS PERIOD  271
1
  VOLUMETRIC BUDGET FOR ENTIRE MODEL AT END OF TIME STEP    1, STRESS PERIOD 271
  ------------------------------------------------------------------------------

     CUMULATIVE VOLUMES      L**3       RATES FOR THIS TIME STEP      L**3/T
     ------------------                 ------------------------

           IN:                                      IN:
           ---                                      ---
             STORAGE =        4530.9258               STORAGE =           0.4531
       CONSTANT HEAD =           0.0000         CONSTANT HEAD =           0.0000
       RIVER LEAKAGE =         564.7135         RIVER LEAKAGE =           0.0000
            RECHARGE =        4864.0000              RECHARGE =          13.0000

            TOTAL IN =        9959.6387              TOTAL IN =          13.4531

          OUT:                                     OUT:
          ----                                     ----
             STORAGE =        4495.2583               STORAGE =           5.1524
       CONSTANT HEAD =         797.2770         CONSTANT HEAD =           2.9333
       RIVER LEAKAGE =         475.3513         RIVER LEAKAGE =           5.3674
            RECHARGE =        4191.7500              RECHARGE =           0.0000

           TOTAL OUT =        9959.6367             TOTAL OUT =          13.4531

            IN - OUT =       1.9531E-03              IN - OUT =      -4.0054E-05

 PERCENT DISCREPANCY =           0.00     PERCENT DISCREPANCY =          -0.00






         TIME SUMMARY AT END OF TIME STEP    1 IN STRESS PERIOD  271
                    SECONDS     MINUTES      HOURS       DAYS        YEARS
                    -----------------------------------------------------------
   TIME STEP LENGTH  86400.      1440.0      24.000      1.0000     2.73785E-03
 STRESS PERIOD TIME  86400.      1440.0      24.000      1.0000     2.73785E-03
         TOTAL TIME 2.34144E+07 3.90240E+05  6504.0      271.00     0.74196    
1
1
                            STRESS PERIOD NO.  272, LENGTH =   1.000000    
                            -----------------------------------------------

                              NUMBER OF TIME STEPS =     1

                               MULTIPLIER FOR DELT =     1.000

                            INITIAL TIME STEP SIZE =   1.000000    

 REUSING NON-PARAMETER RIVER REACHES FROM LAST STRESS PERIOD

      2 RIVER REACHES

                 RECHARGE = -1.000000E-04
 
 SOLVING FOR HEAD 

 OUTPUT CONTROL FOR STRESS PERIOD  272   TIME STEP    1
    SAVE HEAD FOR ALL LAYERS

 HEAD WILL BE SAVED ON UNIT   51 AT END OF TIME STEP    1, STRESS PERIOD  272
1
  VOLUMETRIC BUDGET FOR ENTIRE MODEL AT END OF TIME STEP    1, STRESS PERIOD 272
  ------------------------------------------------------------------------------

     CUMULATIVE VOLUMES      L**3       RATES FOR THIS TIME STEP      L**3/T
     ------------------                 ------------------------

           IN:                                      IN:
           ---                                      ---
             STORAGE =        4540.0107               STORAGE =           9.0849
       CONSTANT HEAD =           0.0000         CONSTANT HEAD =           0.0000
       RIVER LEAKAGE =         564.7135         RIVER LEAKAGE =           0.0000
            RECHARGE =        4864.0000              RECHARGE =           0.0000

            TOTAL IN =        9968.7246              TOTAL IN =           9.0849

          OUT:                                     OUT:
          ----                                     ----
             STORAGE =        4495.5796               STORAGE =           0.3211
       CONSTANT HEAD =         800.2142         CONSTANT HEAD =           2.9372
       RIVER LEAKAGE =         480.1779         RIVER LEAKAGE =           4.8266
            RECHARGE =        4192.7500              RECHARGE =           1.0000

           TOTAL OUT =        9968.7217             TOTAL OUT =           9.0849

            IN - OUT =       2.9297E-03              IN - OUT =      -3.6240E-05

 PERCENT DISCREPANCY =           0.00     PERCENT DISCREPANCY =          -0.00






         TIME SUMMARY AT END OF TIME STEP    1 IN STRESS PERIOD  272
                    SECONDS     MINUTES      HOURS       DAYS        YEARS
                    -----------------------------------------------------------
   TIME STEP LENGTH  86400.      1440.0      24.000      1.0000     2.73785E-03
 STRESS PERIOD TIME  86400.      1440.0      24.000      1.0000     2.73785E-03
         TOTAL TIME 2.35008E+07 3.91680E+05  6528.0      272.00     0.74470    
1
1
                            STRESS PERIOD NO.  273, LENGTH =   1.000000    
                            -----------------------------------------------

                              NUMBER OF TIME STEPS =     1

                               MULTIPLIER FOR DELT =     1.000

                            INITIAL TIME STEP SIZE =   1.000000    

 REUSING NON-PARAMETER RIVER REACHES FROM LAST STRESS PERIOD

      2 RIVER REACHES

                 RECHARGE =  5.300000E-03
 
 SOLVING FOR HEAD 

 OUTPUT CONTROL FOR STRESS PERIOD  273   TIME STEP    1
    SAVE HEAD FOR ALL LAYERS

 HEAD WILL BE SAVED ON UNIT   51 AT END OF TIME STEP    1, STRESS PERIOD  273
1
  VOLUMETRIC BUDGET FOR ENTIRE MODEL AT END OF TIME STEP    1, STRESS PERIOD 273
  ------------------------------------------------------------------------------

     CUMULATIVE VOLUMES      L**3       RATES FOR THIS TIME STEP      L**3/T
     ------------------                 ------------------------

           IN:                                      IN:
           ---                                      ---
             STORAGE =        4540.0107               STORAGE =           0.0000
       CONSTANT HEAD =           0.0000         CONSTANT HEAD =           0.0000
       RIVER LEAKAGE =         564.7135         RIVER LEAKAGE =           0.0000
            RECHARGE =        4917.0000              RECHARGE =          53.0000

            TOTAL IN =       10021.7246              TOTAL IN =          53.0000

          OUT:                                     OUT:
          ----                                     ----
             STORAGE =        4539.2622               STORAGE =          43.6825
       CONSTANT HEAD =         803.1569         CONSTANT HEAD =           2.9427
       RIVER LEAKAGE =         486.5527         RIVER LEAKAGE =           6.3748
            RECHARGE =        4192.7500              RECHARGE =           0.0000

           TOTAL OUT =       10021.7217             TOTAL OUT =          53.0000

            IN - OUT =       2.9297E-03              IN - OUT =       1.5259E-05

 PERCENT DISCREPANCY =           0.00     PERCENT DISCREPANCY =           0.00






         TIME SUMMARY AT END OF TIME STEP    1 IN STRESS PERIOD  273
                    SECONDS     MINUTES      HOURS       DAYS        YEARS
                    -----------------------------------------------------------
   TIME STEP LENGTH  86400.      1440.0      24.000      1.0000     2.73785E-03
 STRESS PERIOD TIME  86400.      1440.0      24.000      1.0000     2.73785E-03
         TOTAL TIME 2.35872E+07 3.93120E+05  6552.0      273.00     0.74743    
1
1
                            STRESS PERIOD NO.  274, LENGTH =   1.000000    
                            -----------------------------------------------

                              NUMBER OF TIME STEPS =     1

                               MULTIPLIER FOR DELT =     1.000

                            INITIAL TIME STEP SIZE =   1.000000    

 REUSING NON-PARAMETER RIVER REACHES FROM LAST STRESS PERIOD

      2 RIVER REACHES

                 RECHARGE =  1.510000E-02
 
 SOLVING FOR HEAD 

 OUTPUT CONTROL FOR STRESS PERIOD  274   TIME STEP    1
    SAVE HEAD FOR ALL LAYERS

 HEAD WILL BE SAVED ON UNIT   51 AT END OF TIME STEP    1, STRESS PERIOD  274
1
  VOLUMETRIC BUDGET FOR ENTIRE MODEL AT END OF TIME STEP    1, STRESS PERIOD 274
  ------------------------------------------------------------------------------

     CUMULATIVE VOLUMES      L**3       RATES FOR THIS TIME STEP      L**3/T
     ------------------                 ------------------------

           IN:                                      IN:
           ---                                      ---
             STORAGE =        4540.0107               STORAGE =           0.0000
       CONSTANT HEAD =           0.0000         CONSTANT HEAD =           0.0000
       RIVER LEAKAGE =         564.7135         RIVER LEAKAGE =           0.0000
            RECHARGE =        5068.0000              RECHARGE =         151.0000

            TOTAL IN =       10172.7246              TOTAL IN =         151.0000

          OUT:                                     OUT:
          ----                                     ----
             STORAGE =        4676.5645               STORAGE =         137.3024
       CONSTANT HEAD =         806.1091         CONSTANT HEAD =           2.9522
       RIVER LEAKAGE =         497.2981         RIVER LEAKAGE =          10.7454
            RECHARGE =        4192.7500              RECHARGE =           0.0000

           TOTAL OUT =       10172.7217             TOTAL OUT =         151.0000

            IN - OUT =       2.9297E-03              IN - OUT =      -3.0518E-05

 PERCENT DISCREPANCY =           0.00     PERCENT DISCREPANCY =          -0.00






         TIME SUMMARY AT END OF TIME STEP    1 IN STRESS PERIOD  274
                    SECONDS     MINUTES      HOURS       DAYS        YEARS
                    -----------------------------------------------------------
   TIME STEP LENGTH  86400.      1440.0      24.000      1.0000     2.73785E-03
 STRESS PERIOD TIME  86400.      1440.0      24.000      1.0000     2.73785E-03
         TOTAL TIME 2.36736E+07 3.94560E+05  6576.0      274.00     0.75017    
1
1
                            STRESS PERIOD NO.  275, LENGTH =   1.000000    
                            -----------------------------------------------

                              NUMBER OF TIME STEPS =     1

                               MULTIPLIER FOR DELT =     1.000

                            INITIAL TIME STEP SIZE =   1.000000    

 REUSING NON-PARAMETER RIVER REACHES FROM LAST STRESS PERIOD

      2 RIVER REACHES

                 RECHARGE =  6.000000E-04
 
 SOLVING FOR HEAD 

 OUTPUT CONTROL FOR STRESS PERIOD  275   TIME STEP    1
    SAVE HEAD FOR ALL LAYERS

 HEAD WILL BE SAVED ON UNIT   51 AT END OF TIME STEP    1, STRESS PERIOD  275
1
  VOLUMETRIC BUDGET FOR ENTIRE MODEL AT END OF TIME STEP    1, STRESS PERIOD 275
  ------------------------------------------------------------------------------

     CUMULATIVE VOLUMES      L**3       RATES FOR THIS TIME STEP      L**3/T
     ------------------                 ------------------------

           IN:                                      IN:
           ---                                      ---
             STORAGE =        4546.2100               STORAGE =           6.1992
       CONSTANT HEAD =           0.0000         CONSTANT HEAD =           0.0000
       RIVER LEAKAGE =         564.7135         RIVER LEAKAGE =           0.0000
            RECHARGE =        5074.0000              RECHARGE =           6.0000

            TOTAL IN =       10184.9238              TOTAL IN =          12.1992

          OUT:                                     OUT:
          ----                                     ----
             STORAGE =        4677.3096               STORAGE =           0.7451
       CONSTANT HEAD =         809.0678         CONSTANT HEAD =           2.9587
       RIVER LEAKAGE =         505.7936         RIVER LEAKAGE =           8.4955
            RECHARGE =        4192.7500              RECHARGE =           0.0000

           TOTAL OUT =       10184.9209             TOTAL OUT =          12.1993

            IN - OUT =       2.9297E-03              IN - OUT =      -8.7738E-05

 PERCENT DISCREPANCY =           0.00     PERCENT DISCREPANCY =          -0.00






         TIME SUMMARY AT END OF TIME STEP    1 IN STRESS PERIOD  275
                    SECONDS     MINUTES      HOURS       DAYS        YEARS
                    -----------------------------------------------------------
   TIME STEP LENGTH  86400.      1440.0      24.000      1.0000     2.73785E-03
 STRESS PERIOD TIME  86400.      1440.0      24.000      1.0000     2.73785E-03
         TOTAL TIME 2.37600E+07 3.96000E+05  6600.0      275.00     0.75291    
1
1
                            STRESS PERIOD NO.  276, LENGTH =   1.000000    
                            -----------------------------------------------

                              NUMBER OF TIME STEPS =     1

                               MULTIPLIER FOR DELT =     1.000

                            INITIAL TIME STEP SIZE =   1.000000    

 REUSING NON-PARAMETER RIVER REACHES FROM LAST STRESS PERIOD

      2 RIVER REACHES

                 RECHARGE =   0.00000    
 
 SOLVING FOR HEAD 

 OUTPUT CONTROL FOR STRESS PERIOD  276   TIME STEP    1
    SAVE HEAD FOR ALL LAYERS

 HEAD WILL BE SAVED ON UNIT   51 AT END OF TIME STEP    1, STRESS PERIOD  276
1
  VOLUMETRIC BUDGET FOR ENTIRE MODEL AT END OF TIME STEP    1, STRESS PERIOD 276
  ------------------------------------------------------------------------------

     CUMULATIVE VOLUMES      L**3       RATES FOR THIS TIME STEP      L**3/T
     ------------------                 ------------------------

           IN:                                      IN:
           ---                                      ---
             STORAGE =        4556.9263               STORAGE =          10.7162
       CONSTANT HEAD =           0.0000         CONSTANT HEAD =           0.0000
       RIVER LEAKAGE =         564.7135         RIVER LEAKAGE =           0.0000
            RECHARGE =        5074.0000              RECHARGE =           0.0000

            TOTAL IN =       10195.6396              TOTAL IN =          10.7162

          OUT:                                     OUT:
          ----                                     ----
             STORAGE =        4677.7119               STORAGE =           0.4022
       CONSTANT HEAD =         812.0319         CONSTANT HEAD =           2.9641
       RIVER LEAKAGE =         513.1436         RIVER LEAKAGE =           7.3499
            RECHARGE =        4192.7500              RECHARGE =           0.0000

           TOTAL OUT =       10195.6367             TOTAL OUT =          10.7163

            IN - OUT =       2.9297E-03              IN - OUT =      -9.5367E-06

 PERCENT DISCREPANCY =           0.00     PERCENT DISCREPANCY =          -0.00






         TIME SUMMARY AT END OF TIME STEP    1 IN STRESS PERIOD  276
                    SECONDS     MINUTES      HOURS       DAYS        YEARS
                    -----------------------------------------------------------
   TIME STEP LENGTH  86400.      1440.0      24.000      1.0000     2.73785E-03
 STRESS PERIOD TIME  86400.      1440.0      24.000      1.0000     2.73785E-03
         TOTAL TIME 2.38464E+07 3.97440E+05  6624.0      276.00     0.75565    
1
1
                            STRESS PERIOD NO.  277, LENGTH =   1.000000    
                            -----------------------------------------------

                              NUMBER OF TIME STEPS =     1

                               MULTIPLIER FOR DELT =     1.000

                            INITIAL TIME STEP SIZE =   1.000000    

 REUSING NON-PARAMETER RIVER REACHES FROM LAST STRESS PERIOD

      2 RIVER REACHES

                 RECHARGE =  4.000000E-04
 
 SOLVING FOR HEAD 

 OUTPUT CONTROL FOR STRESS PERIOD  277   TIME STEP    1
    SAVE HEAD FOR ALL LAYERS

 HEAD WILL BE SAVED ON UNIT   51 AT END OF TIME STEP    1, STRESS PERIOD  277
1
  VOLUMETRIC BUDGET FOR ENTIRE MODEL AT END OF TIME STEP    1, STRESS PERIOD 277
  ------------------------------------------------------------------------------

     CUMULATIVE VOLUMES      L**3       RATES FOR THIS TIME STEP      L**3/T
     ------------------                 ------------------------

           IN:                                      IN:
           ---                                      ---
             STORAGE =        4563.0957               STORAGE =           6.1694
       CONSTANT HEAD =           0.0000         CONSTANT HEAD =           0.0000
       RIVER LEAKAGE =         564.7135         RIVER LEAKAGE =           0.0000
            RECHARGE =        5078.0000              RECHARGE =           4.0000

            TOTAL IN =       10205.8086              TOTAL IN =          10.1694

          OUT:                                     OUT:
          ----                                     ----
             STORAGE =        4678.1045               STORAGE =           0.3927
       CONSTANT HEAD =         815.0012         CONSTANT HEAD =           2.9692
       RIVER LEAKAGE =         519.9512         RIVER LEAKAGE =           6.8077
            RECHARGE =        4192.7500              RECHARGE =           0.0000

           TOTAL OUT =       10205.8066             TOTAL OUT =          10.1696

            IN - OUT =       1.9531E-03              IN - OUT =      -1.4400E-04

 PERCENT DISCREPANCY =           0.00     PERCENT DISCREPANCY =          -0.00






         TIME SUMMARY AT END OF TIME STEP    1 IN STRESS PERIOD  277
                    SECONDS     MINUTES      HOURS       DAYS        YEARS
                    -----------------------------------------------------------
   TIME STEP LENGTH  86400.      1440.0      24.000      1.0000     2.73785E-03
 STRESS PERIOD TIME  86400.      1440.0      24.000      1.0000     2.73785E-03
         TOTAL TIME 2.39328E+07 3.98880E+05  6648.0      277.00     0.75838    
1
1
                            STRESS PERIOD NO.  278, LENGTH =   1.000000    
                            -----------------------------------------------

                              NUMBER OF TIME STEPS =     1

                               MULTIPLIER FOR DELT =     1.000

                            INITIAL TIME STEP SIZE =   1.000000    

 REUSING NON-PARAMETER RIVER REACHES FROM LAST STRESS PERIOD

      2 RIVER REACHES

                 RECHARGE = -1.750000E-04
 
 SOLVING FOR HEAD 

 OUTPUT CONTROL FOR STRESS PERIOD  278   TIME STEP    1
    SAVE HEAD FOR ALL LAYERS

 HEAD WILL BE SAVED ON UNIT   51 AT END OF TIME STEP    1, STRESS PERIOD  278
1
  VOLUMETRIC BUDGET FOR ENTIRE MODEL AT END OF TIME STEP    1, STRESS PERIOD 278
  ------------------------------------------------------------------------------

     CUMULATIVE VOLUMES      L**3       RATES FOR THIS TIME STEP      L**3/T
     ------------------                 ------------------------

           IN:                                      IN:
           ---                                      ---
             STORAGE =        4574.4097               STORAGE =          11.3141
       CONSTANT HEAD =           0.0000         CONSTANT HEAD =           0.0000
       RIVER LEAKAGE =         564.7135         RIVER LEAKAGE =           0.0000
            RECHARGE =        5078.0000              RECHARGE =           0.0000

            TOTAL IN =       10217.1230              TOTAL IN =          11.3141

          OUT:                                     OUT:
          ----                                     ----
             STORAGE =        4678.4849               STORAGE =           0.3803
       CONSTANT HEAD =         817.9750         CONSTANT HEAD =           2.9738
       RIVER LEAKAGE =         526.1612         RIVER LEAKAGE =           6.2100
            RECHARGE =        4194.5000              RECHARGE =           1.7500

           TOTAL OUT =       10217.1211             TOTAL OUT =          11.3141

            IN - OUT =       1.9531E-03              IN - OUT =      -3.0518E-05

 PERCENT DISCREPANCY =           0.00     PERCENT DISCREPANCY =          -0.00






         TIME SUMMARY AT END OF TIME STEP    1 IN STRESS PERIOD  278
                    SECONDS     MINUTES      HOURS       DAYS        YEARS
                    -----------------------------------------------------------
   TIME STEP LENGTH  86400.      1440.0      24.000      1.0000     2.73785E-03
 STRESS PERIOD TIME  86400.      1440.0      24.000      1.0000     2.73785E-03
         TOTAL TIME 2.40192E+07 4.00320E+05  6672.0      278.00     0.76112    
1
1
                            STRESS PERIOD NO.  279, LENGTH =   1.000000    
                            -----------------------------------------------

                              NUMBER OF TIME STEPS =     1

                               MULTIPLIER FOR DELT =     1.000

                            INITIAL TIME STEP SIZE =   1.000000    

 REUSING NON-PARAMETER RIVER REACHES FROM LAST STRESS PERIOD

      2 RIVER REACHES

                 RECHARGE = -7.500000E-05
 
 SOLVING FOR HEAD 

 OUTPUT CONTROL FOR STRESS PERIOD  279   TIME STEP    1
    SAVE HEAD FOR ALL LAYERS

 HEAD WILL BE SAVED ON UNIT   51 AT END OF TIME STEP    1, STRESS PERIOD  279
1
  VOLUMETRIC BUDGET FOR ENTIRE MODEL AT END OF TIME STEP    1, STRESS PERIOD 279
  ------------------------------------------------------------------------------

     CUMULATIVE VOLUMES      L**3       RATES FOR THIS TIME STEP      L**3/T
     ------------------                 ------------------------

           IN:                                      IN:
           ---                                      ---
             STORAGE =        4584.3198               STORAGE =           9.9103
       CONSTANT HEAD =           0.0000         CONSTANT HEAD =           0.0000
       RIVER LEAKAGE =         564.7135         RIVER LEAKAGE =           0.0000
            RECHARGE =        5078.0000              RECHARGE =           0.0000

            TOTAL IN =       10227.0332              TOTAL IN =           9.9103

          OUT:                                     OUT:
          ----                                     ----
             STORAGE =        4678.8540               STORAGE =           0.3691
       CONSTANT HEAD =         820.9531         CONSTANT HEAD =           2.9782
       RIVER LEAKAGE =         531.9741         RIVER LEAKAGE =           5.8129
            RECHARGE =        4195.2500              RECHARGE =           0.7500

           TOTAL OUT =       10227.0312             TOTAL OUT =           9.9102

            IN - OUT =       1.9531E-03              IN - OUT =       1.0777E-04

 PERCENT DISCREPANCY =           0.00     PERCENT DISCREPANCY =           0.00






         TIME SUMMARY AT END OF TIME STEP    1 IN STRESS PERIOD  279
                    SECONDS     MINUTES      HOURS       DAYS        YEARS
                    -----------------------------------------------------------
   TIME STEP LENGTH  86400.      1440.0      24.000      1.0000     2.73785E-03
 STRESS PERIOD TIME  86400.      1440.0      24.000      1.0000     2.73785E-03
         TOTAL TIME 2.41056E+07 4.01760E+05  6696.0      279.00     0.76386    
1
1
                            STRESS PERIOD NO.  280, LENGTH =   1.000000    
                            -----------------------------------------------

                              NUMBER OF TIME STEPS =     1

                               MULTIPLIER FOR DELT =     1.000

                            INITIAL TIME STEP SIZE =   1.000000    

 REUSING NON-PARAMETER RIVER REACHES FROM LAST STRESS PERIOD

      2 RIVER REACHES

                 RECHARGE =  1.900000E-03
 
 SOLVING FOR HEAD 

 OUTPUT CONTROL FOR STRESS PERIOD  280   TIME STEP    1
    SAVE HEAD FOR ALL LAYERS

 HEAD WILL BE SAVED ON UNIT   51 AT END OF TIME STEP    1, STRESS PERIOD  280
1
  VOLUMETRIC BUDGET FOR ENTIRE MODEL AT END OF TIME STEP    1, STRESS PERIOD 280
  ------------------------------------------------------------------------------

     CUMULATIVE VOLUMES      L**3       RATES FOR THIS TIME STEP      L**3/T
     ------------------                 ------------------------

           IN:                                      IN:
           ---                                      ---
             STORAGE =        4584.3198               STORAGE =           0.0000
       CONSTANT HEAD =           0.0000         CONSTANT HEAD =           0.0000
       RIVER LEAKAGE =         564.7135         RIVER LEAKAGE =           0.0000
            RECHARGE =        5097.0000              RECHARGE =          19.0000

            TOTAL IN =       10246.0332              TOTAL IN =          19.0000

          OUT:                                     OUT:
          ----                                     ----
             STORAGE =        4688.6875               STORAGE =           9.8334
       CONSTANT HEAD =         823.9360         CONSTANT HEAD =           2.9829
       RIVER LEAKAGE =         538.1578         RIVER LEAKAGE =           6.1837
            RECHARGE =        4195.2500              RECHARGE =           0.0000

           TOTAL OUT =       10246.0312             TOTAL OUT =          19.0001

            IN - OUT =       1.9531E-03              IN - OUT =      -1.1063E-04

 PERCENT DISCREPANCY =           0.00     PERCENT DISCREPANCY =          -0.00






         TIME SUMMARY AT END OF TIME STEP    1 IN STRESS PERIOD  280
                    SECONDS     MINUTES      HOURS       DAYS        YEARS
                    -----------------------------------------------------------
   TIME STEP LENGTH  86400.      1440.0      24.000      1.0000     2.73785E-03
 STRESS PERIOD TIME  86400.      1440.0      24.000      1.0000     2.73785E-03
         TOTAL TIME 2.41920E+07 4.03200E+05  6720.0      280.00     0.76660    
1
1
                            STRESS PERIOD NO.  281, LENGTH =   1.000000    
                            -----------------------------------------------

                              NUMBER OF TIME STEPS =     1

                               MULTIPLIER FOR DELT =     1.000

                            INITIAL TIME STEP SIZE =   1.000000    

 REUSING NON-PARAMETER RIVER REACHES FROM LAST STRESS PERIOD

      2 RIVER REACHES

                 RECHARGE =  2.300000E-03
 
 SOLVING FOR HEAD 

 OUTPUT CONTROL FOR STRESS PERIOD  281   TIME STEP    1
    SAVE HEAD FOR ALL LAYERS

 HEAD WILL BE SAVED ON UNIT   51 AT END OF TIME STEP    1, STRESS PERIOD  281
1
  VOLUMETRIC BUDGET FOR ENTIRE MODEL AT END OF TIME STEP    1, STRESS PERIOD 281
  ------------------------------------------------------------------------------

     CUMULATIVE VOLUMES      L**3       RATES FOR THIS TIME STEP      L**3/T
     ------------------                 ------------------------

           IN:                                      IN:
           ---                                      ---
             STORAGE =        4584.3198               STORAGE =           0.0000
       CONSTANT HEAD =           0.0000         CONSTANT HEAD =           0.0000
       RIVER LEAKAGE =         564.7135         RIVER LEAKAGE =           0.0000
            RECHARGE =        5120.0000              RECHARGE =          23.0000

            TOTAL IN =       10269.0332              TOTAL IN =          23.0000

          OUT:                                     OUT:
          ----                                     ----
             STORAGE =        4702.2134               STORAGE =          13.5259
       CONSTANT HEAD =         826.9240         CONSTANT HEAD =           2.9880
       RIVER LEAKAGE =         544.6438         RIVER LEAKAGE =           6.4859
            RECHARGE =        4195.2500              RECHARGE =           0.0000

           TOTAL OUT =       10269.0312             TOTAL OUT =          22.9998

            IN - OUT =       1.9531E-03              IN - OUT =       2.0218E-04

 PERCENT DISCREPANCY =           0.00     PERCENT DISCREPANCY =           0.00






         TIME SUMMARY AT END OF TIME STEP    1 IN STRESS PERIOD  281
                    SECONDS     MINUTES      HOURS       DAYS        YEARS
                    -----------------------------------------------------------
   TIME STEP LENGTH  86400.      1440.0      24.000      1.0000     2.73785E-03
 STRESS PERIOD TIME  86400.      1440.0      24.000      1.0000     2.73785E-03
         TOTAL TIME 2.42784E+07 4.04640E+05  6744.0      281.00     0.76934    
1
1
                            STRESS PERIOD NO.  282, LENGTH =   1.000000    
                            -----------------------------------------------

                              NUMBER OF TIME STEPS =     1

                               MULTIPLIER FOR DELT =     1.000

                            INITIAL TIME STEP SIZE =   1.000000    

 REUSING NON-PARAMETER RIVER REACHES FROM LAST STRESS PERIOD

      2 RIVER REACHES

                 RECHARGE = -1.000000E-04
 
 SOLVING FOR HEAD 

 OUTPUT CONTROL FOR STRESS PERIOD  282   TIME STEP    1
    SAVE HEAD FOR ALL LAYERS

 HEAD WILL BE SAVED ON UNIT   51 AT END OF TIME STEP    1, STRESS PERIOD  282
1
  VOLUMETRIC BUDGET FOR ENTIRE MODEL AT END OF TIME STEP    1, STRESS PERIOD 282
  ------------------------------------------------------------------------------

     CUMULATIVE VOLUMES      L**3       RATES FOR THIS TIME STEP      L**3/T
     ------------------                 ------------------------

           IN:                                      IN:
           ---                                      ---
             STORAGE =        4594.5054               STORAGE =          10.1855
       CONSTANT HEAD =           0.0000         CONSTANT HEAD =           0.0000
       RIVER LEAKAGE =         564.7135         RIVER LEAKAGE =           0.0000
            RECHARGE =        5120.0000              RECHARGE =           0.0000

            TOTAL IN =       10279.2188              TOTAL IN =          10.1855

          OUT:                                     OUT:
          ----                                     ----
             STORAGE =        4702.5762               STORAGE =           0.3626
       CONSTANT HEAD =         829.9163         CONSTANT HEAD =           2.9923
       RIVER LEAKAGE =         550.4745         RIVER LEAKAGE =           5.8307
            RECHARGE =        4196.2500              RECHARGE =           1.0000

           TOTAL OUT =       10279.2168             TOTAL OUT =          10.1856

            IN - OUT =       1.9531E-03              IN - OUT =      -4.7684E-05

 PERCENT DISCREPANCY =           0.00     PERCENT DISCREPANCY =          -0.00






         TIME SUMMARY AT END OF TIME STEP    1 IN STRESS PERIOD  282
                    SECONDS     MINUTES      HOURS       DAYS        YEARS
                    -----------------------------------------------------------
   TIME STEP LENGTH  86400.      1440.0      24.000      1.0000     2.73785E-03
 STRESS PERIOD TIME  86400.      1440.0      24.000      1.0000     2.73785E-03
         TOTAL TIME 2.43648E+07 4.06080E+05  6768.0      282.00     0.77207    
1
1
                            STRESS PERIOD NO.  283, LENGTH =   1.000000    
                            -----------------------------------------------

                              NUMBER OF TIME STEPS =     1

                               MULTIPLIER FOR DELT =     1.000

                            INITIAL TIME STEP SIZE =   1.000000    

 REUSING NON-PARAMETER RIVER REACHES FROM LAST STRESS PERIOD

      2 RIVER REACHES

                 RECHARGE = -1.000000E-04
 
 SOLVING FOR HEAD 

 OUTPUT CONTROL FOR STRESS PERIOD  283   TIME STEP    1
    SAVE HEAD FOR ALL LAYERS

 HEAD WILL BE SAVED ON UNIT   51 AT END OF TIME STEP    1, STRESS PERIOD  283
1
  VOLUMETRIC BUDGET FOR ENTIRE MODEL AT END OF TIME STEP    1, STRESS PERIOD 283
  ------------------------------------------------------------------------------

     CUMULATIVE VOLUMES      L**3       RATES FOR THIS TIME STEP      L**3/T
     ------------------                 ------------------------

           IN:                                      IN:
           ---                                      ---
             STORAGE =        4604.3003               STORAGE =           9.7949
       CONSTANT HEAD =           0.0000         CONSTANT HEAD =           0.0000
       RIVER LEAKAGE =         564.7135         RIVER LEAKAGE =           0.0000
            RECHARGE =        5120.0000              RECHARGE =           0.0000

            TOTAL IN =       10289.0137              TOTAL IN =           9.7949

          OUT:                                     OUT:
          ----                                     ----
             STORAGE =        4702.9282               STORAGE =           0.3518
       CONSTANT HEAD =         832.9125         CONSTANT HEAD =           2.9963
       RIVER LEAKAGE =         555.9214         RIVER LEAKAGE =           5.4469
            RECHARGE =        4197.2500              RECHARGE =           1.0000

           TOTAL OUT =       10289.0117             TOTAL OUT =           9.7950

            IN - OUT =       1.9531E-03              IN - OUT =      -6.4850E-05

 PERCENT DISCREPANCY =           0.00     PERCENT DISCREPANCY =          -0.00






         TIME SUMMARY AT END OF TIME STEP    1 IN STRESS PERIOD  283
                    SECONDS     MINUTES      HOURS       DAYS        YEARS
                    -----------------------------------------------------------
   TIME STEP LENGTH  86400.      1440.0      24.000      1.0000     2.73785E-03
 STRESS PERIOD TIME  86400.      1440.0      24.000      1.0000     2.73785E-03
         TOTAL TIME 2.44512E+07 4.07520E+05  6792.0      283.00     0.77481    
1
1
                            STRESS PERIOD NO.  284, LENGTH =   1.000000    
                            -----------------------------------------------

                              NUMBER OF TIME STEPS =     1

                               MULTIPLIER FOR DELT =     1.000

                            INITIAL TIME STEP SIZE =   1.000000    

 REUSING NON-PARAMETER RIVER REACHES FROM LAST STRESS PERIOD

      2 RIVER REACHES

                 RECHARGE =  7.700000E-03
 
 SOLVING FOR HEAD 

 OUTPUT CONTROL FOR STRESS PERIOD  284   TIME STEP    1
    SAVE HEAD FOR ALL LAYERS

 HEAD WILL BE SAVED ON UNIT   51 AT END OF TIME STEP    1, STRESS PERIOD  284
1
  VOLUMETRIC BUDGET FOR ENTIRE MODEL AT END OF TIME STEP    1, STRESS PERIOD 284
  ------------------------------------------------------------------------------

     CUMULATIVE VOLUMES      L**3       RATES FOR THIS TIME STEP      L**3/T
     ------------------                 ------------------------

           IN:                                      IN:
           ---                                      ---
             STORAGE =        4604.3003               STORAGE =           0.0000
       CONSTANT HEAD =           0.0000         CONSTANT HEAD =           0.0000
       RIVER LEAKAGE =         564.7135         RIVER LEAKAGE =           0.0000
            RECHARGE =        5197.0000              RECHARGE =          77.0000

            TOTAL IN =       10366.0137              TOTAL IN =          77.0000

          OUT:                                     OUT:
          ----                                     ----
             STORAGE =        4769.0234               STORAGE =          66.0954
       CONSTANT HEAD =         835.9153         CONSTANT HEAD =           3.0028
       RIVER LEAKAGE =         563.8234         RIVER LEAKAGE =           7.9020
            RECHARGE =        4197.2500              RECHARGE =           0.0000

           TOTAL OUT =       10366.0117             TOTAL OUT =          77.0001

            IN - OUT =       1.9531E-03              IN - OUT =      -1.3733E-04

 PERCENT DISCREPANCY =           0.00     PERCENT DISCREPANCY =          -0.00






         TIME SUMMARY AT END OF TIME STEP    1 IN STRESS PERIOD  284
                    SECONDS     MINUTES      HOURS       DAYS        YEARS
                    -----------------------------------------------------------
   TIME STEP LENGTH  86400.      1440.0      24.000      1.0000     2.73785E-03
 STRESS PERIOD TIME  86400.      1440.0      24.000      1.0000     2.73785E-03
         TOTAL TIME 2.45376E+07 4.08960E+05  6816.0      284.00     0.77755    
1
1
                            STRESS PERIOD NO.  285, LENGTH =   1.000000    
                            -----------------------------------------------

                              NUMBER OF TIME STEPS =     1

                               MULTIPLIER FOR DELT =     1.000

                            INITIAL TIME STEP SIZE =   1.000000    

 REUSING NON-PARAMETER RIVER REACHES FROM LAST STRESS PERIOD

      2 RIVER REACHES

                 RECHARGE =  1.530000E-02
 
 SOLVING FOR HEAD 

 OUTPUT CONTROL FOR STRESS PERIOD  285   TIME STEP    1
    SAVE HEAD FOR ALL LAYERS

 HEAD WILL BE SAVED ON UNIT   51 AT END OF TIME STEP    1, STRESS PERIOD  285
1
  VOLUMETRIC BUDGET FOR ENTIRE MODEL AT END OF TIME STEP    1, STRESS PERIOD 285
  ------------------------------------------------------------------------------

     CUMULATIVE VOLUMES      L**3       RATES FOR THIS TIME STEP      L**3/T
     ------------------                 ------------------------

           IN:                                      IN:
           ---                                      ---
             STORAGE =        4604.3003               STORAGE =           0.0000
       CONSTANT HEAD =           0.0000         CONSTANT HEAD =           0.0000
       RIVER LEAKAGE =         564.7135         RIVER LEAKAGE =           0.0000
            RECHARGE =        5350.0000              RECHARGE =         153.0000

            TOTAL IN =       10519.0137              TOTAL IN =         153.0000

          OUT:                                     OUT:
          ----                                     ----
             STORAGE =        4906.9419               STORAGE =         137.9187
       CONSTANT HEAD =         838.9282         CONSTANT HEAD =           3.0130
       RIVER LEAKAGE =         575.8917         RIVER LEAKAGE =          12.0683
            RECHARGE =        4197.2500              RECHARGE =           0.0000

           TOTAL OUT =       10519.0117             TOTAL OUT =         152.9999

            IN - OUT =       1.9531E-03              IN - OUT =       7.6294E-05

 PERCENT DISCREPANCY =           0.00     PERCENT DISCREPANCY =           0.00






         TIME SUMMARY AT END OF TIME STEP    1 IN STRESS PERIOD  285
                    SECONDS     MINUTES      HOURS       DAYS        YEARS
                    -----------------------------------------------------------
   TIME STEP LENGTH  86400.      1440.0      24.000      1.0000     2.73785E-03
 STRESS PERIOD TIME  86400.      1440.0      24.000      1.0000     2.73785E-03
         TOTAL TIME 2.46240E+07 4.10400E+05  6840.0      285.00     0.78029    
1
1
                            STRESS PERIOD NO.  286, LENGTH =   1.000000    
                            -----------------------------------------------

                              NUMBER OF TIME STEPS =     1

                               MULTIPLIER FOR DELT =     1.000

                            INITIAL TIME STEP SIZE =   1.000000    

 REUSING NON-PARAMETER RIVER REACHES FROM LAST STRESS PERIOD

      2 RIVER REACHES

                 RECHARGE =  1.230000E-02
 
 SOLVING FOR HEAD 

 OUTPUT CONTROL FOR STRESS PERIOD  286   TIME STEP    1
    SAVE HEAD FOR ALL LAYERS

 HEAD WILL BE SAVED ON UNIT   51 AT END OF TIME STEP    1, STRESS PERIOD  286
1
  VOLUMETRIC BUDGET FOR ENTIRE MODEL AT END OF TIME STEP    1, STRESS PERIOD 286
  ------------------------------------------------------------------------------

     CUMULATIVE VOLUMES      L**3       RATES FOR THIS TIME STEP      L**3/T
     ------------------                 ------------------------

           IN:                                      IN:
           ---                                      ---
             STORAGE =        4604.3003               STORAGE =           0.0000
       CONSTANT HEAD =           0.0000         CONSTANT HEAD =           0.0000
       RIVER LEAKAGE =         564.7135         RIVER LEAKAGE =           0.0000
            RECHARGE =        5473.0000              RECHARGE =         123.0000

            TOTAL IN =       10642.0137              TOTAL IN =         123.0000

          OUT:                                     OUT:
          ----                                     ----
             STORAGE =        5013.0869               STORAGE =         106.1449
       CONSTANT HEAD =         841.9522         CONSTANT HEAD =           3.0240
       RIVER LEAKAGE =         589.7230         RIVER LEAKAGE =          13.8312
            RECHARGE =        4197.2500              RECHARGE =           0.0000

           TOTAL OUT =       10642.0117             TOTAL OUT =         123.0001

            IN - OUT =       1.9531E-03              IN - OUT =      -1.3733E-04

 PERCENT DISCREPANCY =           0.00     PERCENT DISCREPANCY =          -0.00






         TIME SUMMARY AT END OF TIME STEP    1 IN STRESS PERIOD  286
                    SECONDS     MINUTES      HOURS       DAYS        YEARS
                    -----------------------------------------------------------
   TIME STEP LENGTH  86400.      1440.0      24.000      1.0000     2.73785E-03
 STRESS PERIOD TIME  86400.      1440.0      24.000      1.0000     2.73785E-03
         TOTAL TIME 2.47104E+07 4.11840E+05  6864.0      286.00     0.78303    
1
1
                            STRESS PERIOD NO.  287, LENGTH =   1.000000    
                            -----------------------------------------------

                              NUMBER OF TIME STEPS =     1

                               MULTIPLIER FOR DELT =     1.000

                            INITIAL TIME STEP SIZE =   1.000000    

 REUSING NON-PARAMETER RIVER REACHES FROM LAST STRESS PERIOD

      2 RIVER REACHES

                 RECHARGE =  1.280000E-02
 
 SOLVING FOR HEAD 

 OUTPUT CONTROL FOR STRESS PERIOD  287   TIME STEP    1
    SAVE HEAD FOR ALL LAYERS

 HEAD WILL BE SAVED ON UNIT   51 AT END OF TIME STEP    1, STRESS PERIOD  287
1
  VOLUMETRIC BUDGET FOR ENTIRE MODEL AT END OF TIME STEP    1, STRESS PERIOD 287
  ------------------------------------------------------------------------------

     CUMULATIVE VOLUMES      L**3       RATES FOR THIS TIME STEP      L**3/T
     ------------------                 ------------------------

           IN:                                      IN:
           ---                                      ---
             STORAGE =        4604.3003               STORAGE =           0.0000
       CONSTANT HEAD =           0.0000         CONSTANT HEAD =           0.0000
       RIVER LEAKAGE =         564.7135         RIVER LEAKAGE =           0.0000
            RECHARGE =        5601.0000              RECHARGE =         128.0000

            TOTAL IN =       10770.0137              TOTAL IN =         128.0000

          OUT:                                     OUT:
          ----                                     ----
             STORAGE =        5122.4375               STORAGE =         109.3508
       CONSTANT HEAD =         844.9884         CONSTANT HEAD =           3.0362
       RIVER LEAKAGE =         605.3358         RIVER LEAKAGE =          15.6128
            RECHARGE =        4197.2500              RECHARGE =           0.0000

           TOTAL OUT =       10770.0117             TOTAL OUT =         127.9998

            IN - OUT =       1.9531E-03              IN - OUT =       2.3651E-04

 PERCENT DISCREPANCY =           0.00     PERCENT DISCREPANCY =           0.00






         TIME SUMMARY AT END OF TIME STEP    1 IN STRESS PERIOD  287
                    SECONDS     MINUTES      HOURS       DAYS        YEARS
                    -----------------------------------------------------------
   TIME STEP LENGTH  86400.      1440.0      24.000      1.0000     2.73785E-03
 STRESS PERIOD TIME  86400.      1440.0      24.000      1.0000     2.73785E-03
         TOTAL TIME 2.47968E+07 4.13280E+05  6888.0      287.00     0.78576    
1
1
                            STRESS PERIOD NO.  288, LENGTH =   1.000000    
                            -----------------------------------------------

                              NUMBER OF TIME STEPS =     1

                               MULTIPLIER FOR DELT =     1.000

                            INITIAL TIME STEP SIZE =   1.000000    

 REUSING NON-PARAMETER RIVER REACHES FROM LAST STRESS PERIOD

      2 RIVER REACHES

                 RECHARGE =  9.700000E-03
 
 SOLVING FOR HEAD 

 OUTPUT CONTROL FOR STRESS PERIOD  288   TIME STEP    1
    SAVE HEAD FOR ALL LAYERS

 HEAD WILL BE SAVED ON UNIT   51 AT END OF TIME STEP    1, STRESS PERIOD  288
1
  VOLUMETRIC BUDGET FOR ENTIRE MODEL AT END OF TIME STEP    1, STRESS PERIOD 288
  ------------------------------------------------------------------------------

     CUMULATIVE VOLUMES      L**3       RATES FOR THIS TIME STEP      L**3/T
     ------------------                 ------------------------

           IN:                                      IN:
           ---                                      ---
             STORAGE =        4604.3003               STORAGE =           0.0000
       CONSTANT HEAD =           0.0000         CONSTANT HEAD =           0.0000
       RIVER LEAKAGE =         564.7135         RIVER LEAKAGE =           0.0000
            RECHARGE =        5698.0000              RECHARGE =          97.0000

            TOTAL IN =       10867.0137              TOTAL IN =          97.0000

          OUT:                                     OUT:
          ----                                     ----
             STORAGE =        5200.3306               STORAGE =          77.8930
       CONSTANT HEAD =         848.0367         CONSTANT HEAD =           3.0483
       RIVER LEAKAGE =         621.3946         RIVER LEAKAGE =          16.0588
            RECHARGE =        4197.2500              RECHARGE =           0.0000

           TOTAL OUT =       10867.0117             TOTAL OUT =          97.0001

            IN - OUT =       1.9531E-03              IN - OUT =      -6.8665E-05

 PERCENT DISCREPANCY =           0.00     PERCENT DISCREPANCY =          -0.00






         TIME SUMMARY AT END OF TIME STEP    1 IN STRESS PERIOD  288
                    SECONDS     MINUTES      HOURS       DAYS        YEARS
                    -----------------------------------------------------------
   TIME STEP LENGTH  86400.      1440.0      24.000      1.0000     2.73785E-03
 STRESS PERIOD TIME  86400.      1440.0      24.000      1.0000     2.73785E-03
         TOTAL TIME 2.48832E+07 4.14720E+05  6912.0      288.00     0.78850    
1
1
                            STRESS PERIOD NO.  289, LENGTH =   1.000000    
                            -----------------------------------------------

                              NUMBER OF TIME STEPS =     1

                               MULTIPLIER FOR DELT =     1.000

                            INITIAL TIME STEP SIZE =   1.000000    

 REUSING NON-PARAMETER RIVER REACHES FROM LAST STRESS PERIOD

      2 RIVER REACHES

                 RECHARGE =  1.000000E-04
 
 SOLVING FOR HEAD 

 OUTPUT CONTROL FOR STRESS PERIOD  289   TIME STEP    1
    SAVE HEAD FOR ALL LAYERS

 HEAD WILL BE SAVED ON UNIT   51 AT END OF TIME STEP    1, STRESS PERIOD  289
1
  VOLUMETRIC BUDGET FOR ENTIRE MODEL AT END OF TIME STEP    1, STRESS PERIOD 289
  ------------------------------------------------------------------------------

     CUMULATIVE VOLUMES      L**3       RATES FOR THIS TIME STEP      L**3/T
     ------------------                 ------------------------

           IN:                                      IN:
           ---                                      ---
             STORAGE =        4620.3110               STORAGE =          16.0106
       CONSTANT HEAD =           0.0000         CONSTANT HEAD =           0.0000
       RIVER LEAKAGE =         564.7135         RIVER LEAKAGE =           0.0000
            RECHARGE =        5699.0000              RECHARGE =           1.0000

            TOTAL IN =       10884.0244              TOTAL IN =          17.0106

          OUT:                                     OUT:
          ----                                     ----
             STORAGE =        5200.9385               STORAGE =           0.6078
       CONSTANT HEAD =         851.0941         CONSTANT HEAD =           3.0574
       RIVER LEAKAGE =         634.7400         RIVER LEAKAGE =          13.3454
            RECHARGE =        4197.2500              RECHARGE =           0.0000

           TOTAL OUT =       10884.0225             TOTAL OUT =          17.0105

            IN - OUT =       1.9531E-03              IN - OUT =       2.6703E-05

 PERCENT DISCREPANCY =           0.00     PERCENT DISCREPANCY =           0.00






         TIME SUMMARY AT END OF TIME STEP    1 IN STRESS PERIOD  289
                    SECONDS     MINUTES      HOURS       DAYS        YEARS
                    -----------------------------------------------------------
   TIME STEP LENGTH  86400.      1440.0      24.000      1.0000     2.73785E-03
 STRESS PERIOD TIME  86400.      1440.0      24.000      1.0000     2.73785E-03
         TOTAL TIME 2.49696E+07 4.16160E+05  6936.0      289.00     0.79124    
1
1
                            STRESS PERIOD NO.  290, LENGTH =   1.000000    
                            -----------------------------------------------

                              NUMBER OF TIME STEPS =     1

                               MULTIPLIER FOR DELT =     1.000

                            INITIAL TIME STEP SIZE =   1.000000    

 REUSING NON-PARAMETER RIVER REACHES FROM LAST STRESS PERIOD

      2 RIVER REACHES

                 RECHARGE =  1.370000E-02
 
 SOLVING FOR HEAD 

 OUTPUT CONTROL FOR STRESS PERIOD  290   TIME STEP    1
    SAVE HEAD FOR ALL LAYERS

 HEAD WILL BE SAVED ON UNIT   51 AT END OF TIME STEP    1, STRESS PERIOD  290
1
  VOLUMETRIC BUDGET FOR ENTIRE MODEL AT END OF TIME STEP    1, STRESS PERIOD 290
  ------------------------------------------------------------------------------

     CUMULATIVE VOLUMES      L**3       RATES FOR THIS TIME STEP      L**3/T
     ------------------                 ------------------------

           IN:                                      IN:
           ---                                      ---
             STORAGE =        4620.3110               STORAGE =           0.0000
       CONSTANT HEAD =           0.0000         CONSTANT HEAD =           0.0000
       RIVER LEAKAGE =         564.7135         RIVER LEAKAGE =           0.0000
            RECHARGE =        5836.0000              RECHARGE =         137.0000

            TOTAL IN =       11021.0244              TOTAL IN =         137.0000

          OUT:                                     OUT:
          ----                                     ----
             STORAGE =        5318.0981               STORAGE =         117.1597
       CONSTANT HEAD =         854.1642         CONSTANT HEAD =           3.0701
       RIVER LEAKAGE =         651.5101         RIVER LEAKAGE =          16.7702
            RECHARGE =        4197.2500              RECHARGE =           0.0000

           TOTAL OUT =       11021.0225             TOTAL OUT =         137.0000

            IN - OUT =       1.9531E-03              IN - OUT =      -3.0518E-05

 PERCENT DISCREPANCY =           0.00     PERCENT DISCREPANCY =          -0.00






         TIME SUMMARY AT END OF TIME STEP    1 IN STRESS PERIOD  290
                    SECONDS     MINUTES      HOURS       DAYS        YEARS
                    -----------------------------------------------------------
   TIME STEP LENGTH  86400.      1440.0      24.000      1.0000     2.73785E-03
 STRESS PERIOD TIME  86400.      1440.0      24.000      1.0000     2.73785E-03
         TOTAL TIME 2.50560E+07 4.17600E+05  6960.0      290.00     0.79398    
1
1
                            STRESS PERIOD NO.  291, LENGTH =   1.000000    
                            -----------------------------------------------

                              NUMBER OF TIME STEPS =     1

                               MULTIPLIER FOR DELT =     1.000

                            INITIAL TIME STEP SIZE =   1.000000    

 REUSING NON-PARAMETER RIVER REACHES FROM LAST STRESS PERIOD

      2 RIVER REACHES

                 RECHARGE =  1.490000E-02
 
 SOLVING FOR HEAD 

 OUTPUT CONTROL FOR STRESS PERIOD  291   TIME STEP    1
    SAVE HEAD FOR ALL LAYERS

 HEAD WILL BE SAVED ON UNIT   51 AT END OF TIME STEP    1, STRESS PERIOD  291
1
  VOLUMETRIC BUDGET FOR ENTIRE MODEL AT END OF TIME STEP    1, STRESS PERIOD 291
  ------------------------------------------------------------------------------

     CUMULATIVE VOLUMES      L**3       RATES FOR THIS TIME STEP      L**3/T
     ------------------                 ------------------------

           IN:                                      IN:
           ---                                      ---
             STORAGE =        4620.3110               STORAGE =           0.0000
       CONSTANT HEAD =           0.0000         CONSTANT HEAD =           0.0000
       RIVER LEAKAGE =         564.7135         RIVER LEAKAGE =           0.0000
            RECHARGE =        5985.0000              RECHARGE =         149.0000

            TOTAL IN =       11170.0244              TOTAL IN =         149.0000

          OUT:                                     OUT:
          ----                                     ----
             STORAGE =        5444.7085               STORAGE =         126.6105
       CONSTANT HEAD =         857.2490         CONSTANT HEAD =           3.0848
       RIVER LEAKAGE =         670.8151         RIVER LEAKAGE =          19.3049
            RECHARGE =        4197.2500              RECHARGE =           0.0000

           TOTAL OUT =       11170.0225             TOTAL OUT =         149.0001

            IN - OUT =       1.9531E-03              IN - OUT =      -1.0681E-04

 PERCENT DISCREPANCY =           0.00     PERCENT DISCREPANCY =          -0.00






         TIME SUMMARY AT END OF TIME STEP    1 IN STRESS PERIOD  291
                    SECONDS     MINUTES      HOURS       DAYS        YEARS
                    -----------------------------------------------------------
   TIME STEP LENGTH  86400.      1440.0      24.000      1.0000     2.73785E-03
 STRESS PERIOD TIME  86400.      1440.0      24.000      1.0000     2.73785E-03
         TOTAL TIME 2.51424E+07 4.19040E+05  6984.0      291.00     0.79671    
1
1
                            STRESS PERIOD NO.  292, LENGTH =   1.000000    
                            -----------------------------------------------

                              NUMBER OF TIME STEPS =     1

                               MULTIPLIER FOR DELT =     1.000

                            INITIAL TIME STEP SIZE =   1.000000    

 REUSING NON-PARAMETER RIVER REACHES FROM LAST STRESS PERIOD

      2 RIVER REACHES

                 RECHARGE =  1.000000E-04
 
 SOLVING FOR HEAD 

 OUTPUT CONTROL FOR STRESS PERIOD  292   TIME STEP    1
    SAVE HEAD FOR ALL LAYERS

 HEAD WILL BE SAVED ON UNIT   51 AT END OF TIME STEP    1, STRESS PERIOD  292
1
  VOLUMETRIC BUDGET FOR ENTIRE MODEL AT END OF TIME STEP    1, STRESS PERIOD 292
  ------------------------------------------------------------------------------

     CUMULATIVE VOLUMES      L**3       RATES FOR THIS TIME STEP      L**3/T
     ------------------                 ------------------------

           IN:                                      IN:
           ---                                      ---
             STORAGE =        4639.0928               STORAGE =          18.7818
       CONSTANT HEAD =           0.0000         CONSTANT HEAD =           0.0000
       RIVER LEAKAGE =         564.7135         RIVER LEAKAGE =           0.0000
            RECHARGE =        5986.0000              RECHARGE =           1.0000

            TOTAL IN =       11189.8066              TOTAL IN =          19.7818

          OUT:                                     OUT:
          ----                                     ----
             STORAGE =        5445.4258               STORAGE =           0.7173
       CONSTANT HEAD =         860.3444         CONSTANT HEAD =           3.0954
       RIVER LEAKAGE =         686.7841         RIVER LEAKAGE =          15.9690
            RECHARGE =        4197.2500              RECHARGE =           0.0000

           TOTAL OUT =       11189.8047             TOTAL OUT =          19.7818

            IN - OUT =       1.9531E-03              IN - OUT =       7.4387E-05

 PERCENT DISCREPANCY =           0.00     PERCENT DISCREPANCY =           0.00






         TIME SUMMARY AT END OF TIME STEP    1 IN STRESS PERIOD  292
                    SECONDS     MINUTES      HOURS       DAYS        YEARS
                    -----------------------------------------------------------
   TIME STEP LENGTH  86400.      1440.0      24.000      1.0000     2.73785E-03
 STRESS PERIOD TIME  86400.      1440.0      24.000      1.0000     2.73785E-03
         TOTAL TIME 2.52288E+07 4.20480E+05  7008.0      292.00     0.79945    
1
1
                            STRESS PERIOD NO.  293, LENGTH =   1.000000    
                            -----------------------------------------------

                              NUMBER OF TIME STEPS =     1

                               MULTIPLIER FOR DELT =     1.000

                            INITIAL TIME STEP SIZE =   1.000000    

 REUSING NON-PARAMETER RIVER REACHES FROM LAST STRESS PERIOD

      2 RIVER REACHES

                 RECHARGE =  1.100000E-03
 
 SOLVING FOR HEAD 

 OUTPUT CONTROL FOR STRESS PERIOD  293   TIME STEP    1
    SAVE HEAD FOR ALL LAYERS

 HEAD WILL BE SAVED ON UNIT   51 AT END OF TIME STEP    1, STRESS PERIOD  293
1
  VOLUMETRIC BUDGET FOR ENTIRE MODEL AT END OF TIME STEP    1, STRESS PERIOD 293
  ------------------------------------------------------------------------------

     CUMULATIVE VOLUMES      L**3       RATES FOR THIS TIME STEP      L**3/T
     ------------------                 ------------------------

           IN:                                      IN:
           ---                                      ---
             STORAGE =        4648.1089               STORAGE =           9.0159
       CONSTANT HEAD =           0.0000         CONSTANT HEAD =           0.0000
       RIVER LEAKAGE =         564.7135         RIVER LEAKAGE =           0.0000
            RECHARGE =        5997.0000              RECHARGE =          11.0000

            TOTAL IN =       11209.8223              TOTAL IN =          20.0159

          OUT:                                     OUT:
          ----                                     ----
             STORAGE =        5447.6719               STORAGE =           2.2463
       CONSTANT HEAD =         863.4495         CONSTANT HEAD =           3.1052
       RIVER LEAKAGE =         701.4487         RIVER LEAKAGE =          14.6646
            RECHARGE =        4197.2500              RECHARGE =           0.0000

           TOTAL OUT =       11209.8203             TOTAL OUT =          20.0161

            IN - OUT =       1.9531E-03              IN - OUT =      -1.6403E-04

 PERCENT DISCREPANCY =           0.00     PERCENT DISCREPANCY =          -0.00






         TIME SUMMARY AT END OF TIME STEP    1 IN STRESS PERIOD  293
                    SECONDS     MINUTES      HOURS       DAYS        YEARS
                    -----------------------------------------------------------
   TIME STEP LENGTH  86400.      1440.0      24.000      1.0000     2.73785E-03
 STRESS PERIOD TIME  86400.      1440.0      24.000      1.0000     2.73785E-03
         TOTAL TIME 2.53152E+07 4.21920E+05  7032.0      293.00     0.80219    
1
1
                            STRESS PERIOD NO.  294, LENGTH =   1.000000    
                            -----------------------------------------------

                              NUMBER OF TIME STEPS =     1

                               MULTIPLIER FOR DELT =     1.000

                            INITIAL TIME STEP SIZE =   1.000000    

 REUSING NON-PARAMETER RIVER REACHES FROM LAST STRESS PERIOD

      2 RIVER REACHES

                 RECHARGE =  4.500000E-03
 
 SOLVING FOR HEAD 

 OUTPUT CONTROL FOR STRESS PERIOD  294   TIME STEP    1
    SAVE HEAD FOR ALL LAYERS

 HEAD WILL BE SAVED ON UNIT   51 AT END OF TIME STEP    1, STRESS PERIOD  294
1
  VOLUMETRIC BUDGET FOR ENTIRE MODEL AT END OF TIME STEP    1, STRESS PERIOD 294
  ------------------------------------------------------------------------------

     CUMULATIVE VOLUMES      L**3       RATES FOR THIS TIME STEP      L**3/T
     ------------------                 ------------------------

           IN:                                      IN:
           ---                                      ---
             STORAGE =        4648.1089               STORAGE =           0.0000
       CONSTANT HEAD =           0.0000         CONSTANT HEAD =           0.0000
       RIVER LEAKAGE =         564.7135         RIVER LEAKAGE =           0.0000
            RECHARGE =        6042.0000              RECHARGE =          45.0000

            TOTAL IN =       11254.8223              TOTAL IN =          45.0000

          OUT:                                     OUT:
          ----                                     ----
             STORAGE =        5474.5566               STORAGE =          26.8847
       CONSTANT HEAD =         866.5650         CONSTANT HEAD =           3.1155
       RIVER LEAKAGE =         716.4487         RIVER LEAKAGE =          14.9999
            RECHARGE =        4197.2500              RECHARGE =           0.0000

           TOTAL OUT =       11254.8203             TOTAL OUT =          45.0001

            IN - OUT =       1.9531E-03              IN - OUT =      -9.5367E-05

 PERCENT DISCREPANCY =           0.00     PERCENT DISCREPANCY =          -0.00






         TIME SUMMARY AT END OF TIME STEP    1 IN STRESS PERIOD  294
                    SECONDS     MINUTES      HOURS       DAYS        YEARS
                    -----------------------------------------------------------
   TIME STEP LENGTH  86400.      1440.0      24.000      1.0000     2.73785E-03
 STRESS PERIOD TIME  86400.      1440.0      24.000      1.0000     2.73785E-03
         TOTAL TIME 2.54016E+07 4.23360E+05  7056.0      294.00     0.80493    
1
1
                            STRESS PERIOD NO.  295, LENGTH =   1.000000    
                            -----------------------------------------------

                              NUMBER OF TIME STEPS =     1

                               MULTIPLIER FOR DELT =     1.000

                            INITIAL TIME STEP SIZE =   1.000000    

 REUSING NON-PARAMETER RIVER REACHES FROM LAST STRESS PERIOD

      2 RIVER REACHES

                 RECHARGE =  6.000000E-04
 
 SOLVING FOR HEAD 

 OUTPUT CONTROL FOR STRESS PERIOD  295   TIME STEP    1
    SAVE HEAD FOR ALL LAYERS

 HEAD WILL BE SAVED ON UNIT   51 AT END OF TIME STEP    1, STRESS PERIOD  295
1
  VOLUMETRIC BUDGET FOR ENTIRE MODEL AT END OF TIME STEP    1, STRESS PERIOD 295
  ------------------------------------------------------------------------------

     CUMULATIVE VOLUMES      L**3       RATES FOR THIS TIME STEP      L**3/T
     ------------------                 ------------------------

           IN:                                      IN:
           ---                                      ---
             STORAGE =        4659.6528               STORAGE =          11.5439
       CONSTANT HEAD =           0.0000         CONSTANT HEAD =           0.0000
       RIVER LEAKAGE =         564.7135         RIVER LEAKAGE =           0.0000
            RECHARGE =        6048.0000              RECHARGE =           6.0000

            TOTAL IN =       11272.3662              TOTAL IN =          17.5439

          OUT:                                     OUT:
          ----                                     ----
             STORAGE =        5475.2480               STORAGE =           0.6916
       CONSTANT HEAD =         869.6895         CONSTANT HEAD =           3.1245
       RIVER LEAKAGE =         730.1765         RIVER LEAKAGE =          13.7278
            RECHARGE =        4197.2500              RECHARGE =           0.0000

           TOTAL OUT =       11272.3643             TOTAL OUT =          17.5440

            IN - OUT =       1.9531E-03              IN - OUT =      -5.9128E-05

 PERCENT DISCREPANCY =           0.00     PERCENT DISCREPANCY =          -0.00






         TIME SUMMARY AT END OF TIME STEP    1 IN STRESS PERIOD  295
                    SECONDS     MINUTES      HOURS       DAYS        YEARS
                    -----------------------------------------------------------
   TIME STEP LENGTH  86400.      1440.0      24.000      1.0000     2.73785E-03
 STRESS PERIOD TIME  86400.      1440.0      24.000      1.0000     2.73785E-03
         TOTAL TIME 2.54880E+07 4.24800E+05  7080.0      295.00     0.80767    
1
1
                            STRESS PERIOD NO.  296, LENGTH =   1.000000    
                            -----------------------------------------------

                              NUMBER OF TIME STEPS =     1

                               MULTIPLIER FOR DELT =     1.000

                            INITIAL TIME STEP SIZE =   1.000000    

 REUSING NON-PARAMETER RIVER REACHES FROM LAST STRESS PERIOD

      2 RIVER REACHES

                 RECHARGE = -1.750000E-04
 
 SOLVING FOR HEAD 

 OUTPUT CONTROL FOR STRESS PERIOD  296   TIME STEP    1
    SAVE HEAD FOR ALL LAYERS

 HEAD WILL BE SAVED ON UNIT   51 AT END OF TIME STEP    1, STRESS PERIOD  296
1
  VOLUMETRIC BUDGET FOR ENTIRE MODEL AT END OF TIME STEP    1, STRESS PERIOD 296
  ------------------------------------------------------------------------------

     CUMULATIVE VOLUMES      L**3       RATES FOR THIS TIME STEP      L**3/T
     ------------------                 ------------------------

           IN:                                      IN:
           ---                                      ---
             STORAGE =        4677.8726               STORAGE =          18.2195
       CONSTANT HEAD =           0.0000         CONSTANT HEAD =           0.0000
       RIVER LEAKAGE =         564.7135         RIVER LEAKAGE =           0.0000
            RECHARGE =        6048.0000              RECHARGE =           0.0000

            TOTAL IN =       11290.5859              TOTAL IN =          18.2195

          OUT:                                     OUT:
          ----                                     ----
             STORAGE =        5475.9189               STORAGE =           0.6709
       CONSTANT HEAD =         872.8222         CONSTANT HEAD =           3.1327
       RIVER LEAKAGE =         742.8425         RIVER LEAKAGE =          12.6660
            RECHARGE =        4199.0000              RECHARGE =           1.7500

           TOTAL OUT =       11290.5840             TOTAL OUT =          18.2196

            IN - OUT =       1.9531E-03              IN - OUT =      -4.1962E-05

 PERCENT DISCREPANCY =           0.00     PERCENT DISCREPANCY =          -0.00






         TIME SUMMARY AT END OF TIME STEP    1 IN STRESS PERIOD  296
                    SECONDS     MINUTES      HOURS       DAYS        YEARS
                    -----------------------------------------------------------
   TIME STEP LENGTH  86400.      1440.0      24.000      1.0000     2.73785E-03
 STRESS PERIOD TIME  86400.      1440.0      24.000      1.0000     2.73785E-03
         TOTAL TIME 2.55744E+07 4.26240E+05  7104.0      296.00     0.81040    
1
1
                            STRESS PERIOD NO.  297, LENGTH =   1.000000    
                            -----------------------------------------------

                              NUMBER OF TIME STEPS =     1

                               MULTIPLIER FOR DELT =     1.000

                            INITIAL TIME STEP SIZE =   1.000000    

 REUSING NON-PARAMETER RIVER REACHES FROM LAST STRESS PERIOD

      2 RIVER REACHES

                 RECHARGE =  2.000000E-04
 
 SOLVING FOR HEAD 

 OUTPUT CONTROL FOR STRESS PERIOD  297   TIME STEP    1
    SAVE HEAD FOR ALL LAYERS

 HEAD WILL BE SAVED ON UNIT   51 AT END OF TIME STEP    1, STRESS PERIOD  297
1
  VOLUMETRIC BUDGET FOR ENTIRE MODEL AT END OF TIME STEP    1, STRESS PERIOD 297
  ------------------------------------------------------------------------------

     CUMULATIVE VOLUMES      L**3       RATES FOR THIS TIME STEP      L**3/T
     ------------------                 ------------------------

           IN:                                      IN:
           ---                                      ---
             STORAGE =        4691.7017               STORAGE =          13.8290
       CONSTANT HEAD =           0.0000         CONSTANT HEAD =           0.0000
       RIVER LEAKAGE =         564.7135         RIVER LEAKAGE =           0.0000
            RECHARGE =        6050.0000              RECHARGE =           2.0000

            TOTAL IN =       11306.4150              TOTAL IN =          15.8290

          OUT:                                     OUT:
          ----                                     ----
             STORAGE =        5476.5723               STORAGE =           0.6535
       CONSTANT HEAD =         875.9626         CONSTANT HEAD =           3.1404
       RIVER LEAKAGE =         754.8775         RIVER LEAKAGE =          12.0350
            RECHARGE =        4199.0000              RECHARGE =           0.0000

           TOTAL OUT =       11306.4121             TOTAL OUT =          15.8288

            IN - OUT =       2.9297E-03              IN - OUT =       1.2207E-04

 PERCENT DISCREPANCY =           0.00     PERCENT DISCREPANCY =           0.00






         TIME SUMMARY AT END OF TIME STEP    1 IN STRESS PERIOD  297
                    SECONDS     MINUTES      HOURS       DAYS        YEARS
                    -----------------------------------------------------------
   TIME STEP LENGTH  86400.      1440.0      24.000      1.0000     2.73785E-03
 STRESS PERIOD TIME  86400.      1440.0      24.000      1.0000     2.73785E-03
         TOTAL TIME 2.56608E+07 4.27680E+05  7128.0      297.00     0.81314    
1
1
                            STRESS PERIOD NO.  298, LENGTH =   1.000000    
                            -----------------------------------------------

                              NUMBER OF TIME STEPS =     1

                               MULTIPLIER FOR DELT =     1.000

                            INITIAL TIME STEP SIZE =   1.000000    

 REUSING NON-PARAMETER RIVER REACHES FROM LAST STRESS PERIOD

      2 RIVER REACHES

                 RECHARGE =  2.000000E-04
 
 SOLVING FOR HEAD 

 OUTPUT CONTROL FOR STRESS PERIOD  298   TIME STEP    1
    SAVE HEAD FOR ALL LAYERS

 HEAD WILL BE SAVED ON UNIT   51 AT END OF TIME STEP    1, STRESS PERIOD  298
1
  VOLUMETRIC BUDGET FOR ENTIRE MODEL AT END OF TIME STEP    1, STRESS PERIOD 298
  ------------------------------------------------------------------------------

     CUMULATIVE VOLUMES      L**3       RATES FOR THIS TIME STEP      L**3/T
     ------------------                 ------------------------

           IN:                                      IN:
           ---                                      ---
             STORAGE =        4704.9922               STORAGE =          13.2904
       CONSTANT HEAD =           0.0000         CONSTANT HEAD =           0.0000
       RIVER LEAKAGE =         564.7135         RIVER LEAKAGE =           0.0000
            RECHARGE =        6052.0000              RECHARGE =           2.0000

            TOTAL IN =       11321.7051              TOTAL IN =          15.2904

          OUT:                                     OUT:
          ----                                     ----
             STORAGE =        5477.2090               STORAGE =           0.6368
       CONSTANT HEAD =         879.1105         CONSTANT HEAD =           3.1478
       RIVER LEAKAGE =         766.3832         RIVER LEAKAGE =          11.5057
            RECHARGE =        4199.0000              RECHARGE =           0.0000

           TOTAL OUT =       11321.7031             TOTAL OUT =          15.2903

            IN - OUT =       1.9531E-03              IN - OUT =       9.9182E-05

 PERCENT DISCREPANCY =           0.00     PERCENT DISCREPANCY =           0.00






         TIME SUMMARY AT END OF TIME STEP    1 IN STRESS PERIOD  298
                    SECONDS     MINUTES      HOURS       DAYS        YEARS
                    -----------------------------------------------------------
   TIME STEP LENGTH  86400.      1440.0      24.000      1.0000     2.73785E-03
 STRESS PERIOD TIME  86400.      1440.0      24.000      1.0000     2.73785E-03
         TOTAL TIME 2.57472E+07 4.29120E+05  7152.0      298.00     0.81588    
1
1
                            STRESS PERIOD NO.  299, LENGTH =   1.000000    
                            -----------------------------------------------

                              NUMBER OF TIME STEPS =     1

                               MULTIPLIER FOR DELT =     1.000

                            INITIAL TIME STEP SIZE =   1.000000    

 REUSING NON-PARAMETER RIVER REACHES FROM LAST STRESS PERIOD

      2 RIVER REACHES

                 RECHARGE =  2.400000E-03
 
 SOLVING FOR HEAD 

 OUTPUT CONTROL FOR STRESS PERIOD  299   TIME STEP    1
    SAVE HEAD FOR ALL LAYERS

 HEAD WILL BE SAVED ON UNIT   51 AT END OF TIME STEP    1, STRESS PERIOD  299
1
  VOLUMETRIC BUDGET FOR ENTIRE MODEL AT END OF TIME STEP    1, STRESS PERIOD 299
  ------------------------------------------------------------------------------

     CUMULATIVE VOLUMES      L**3       RATES FOR THIS TIME STEP      L**3/T
     ------------------                 ------------------------

           IN:                                      IN:
           ---                                      ---
             STORAGE =        4705.3926               STORAGE =           0.4004
       CONSTANT HEAD =           0.0000         CONSTANT HEAD =           0.0000
       RIVER LEAKAGE =         564.7135         RIVER LEAKAGE =           0.0000
            RECHARGE =        6076.0000              RECHARGE =          24.0000

            TOTAL IN =       11346.1055              TOTAL IN =          24.4004

          OUT:                                     OUT:
          ----                                     ----
             STORAGE =        5486.6191               STORAGE =           9.4103
       CONSTANT HEAD =         882.2661         CONSTANT HEAD =           3.1556
       RIVER LEAKAGE =         778.2178         RIVER LEAKAGE =          11.8346
            RECHARGE =        4199.0000              RECHARGE =           0.0000

           TOTAL OUT =       11346.1035             TOTAL OUT =          24.4005

            IN - OUT =       1.9531E-03              IN - OUT =      -1.8883E-04

 PERCENT DISCREPANCY =           0.00     PERCENT DISCREPANCY =          -0.00






         TIME SUMMARY AT END OF TIME STEP    1 IN STRESS PERIOD  299
                    SECONDS     MINUTES      HOURS       DAYS        YEARS
                    -----------------------------------------------------------
   TIME STEP LENGTH  86400.      1440.0      24.000      1.0000     2.73785E-03
 STRESS PERIOD TIME  86400.      1440.0      24.000      1.0000     2.73785E-03
         TOTAL TIME 2.58336E+07 4.30560E+05  7176.0      299.00     0.81862    
1
1
                            STRESS PERIOD NO.  300, LENGTH =   1.000000    
                            -----------------------------------------------

                              NUMBER OF TIME STEPS =     1

                               MULTIPLIER FOR DELT =     1.000

                            INITIAL TIME STEP SIZE =   1.000000    

 REUSING NON-PARAMETER RIVER REACHES FROM LAST STRESS PERIOD

      2 RIVER REACHES

                 RECHARGE = -7.500000E-05
 
 SOLVING FOR HEAD 

 OUTPUT CONTROL FOR STRESS PERIOD  300   TIME STEP    1
    SAVE HEAD FOR ALL LAYERS

 HEAD WILL BE SAVED ON UNIT   51 AT END OF TIME STEP    1, STRESS PERIOD  300
1
  VOLUMETRIC BUDGET FOR ENTIRE MODEL AT END OF TIME STEP    1, STRESS PERIOD 300
  ------------------------------------------------------------------------------

     CUMULATIVE VOLUMES      L**3       RATES FOR THIS TIME STEP      L**3/T
     ------------------                 ------------------------

           IN:                                      IN:
           ---                                      ---
             STORAGE =        4720.9766               STORAGE =          15.5839
       CONSTANT HEAD =           0.0000         CONSTANT HEAD =           0.0000
       RIVER LEAKAGE =         564.7135         RIVER LEAKAGE =           0.0000
            RECHARGE =        6076.0000              RECHARGE =           0.0000

            TOTAL IN =       11361.6895              TOTAL IN =          15.5839

          OUT:                                     OUT:
          ----                                     ----
             STORAGE =        5487.2354               STORAGE =           0.6163
       CONSTANT HEAD =         885.4288         CONSTANT HEAD =           3.1627
       RIVER LEAKAGE =         789.2726         RIVER LEAKAGE =          11.0549
            RECHARGE =        4199.7500              RECHARGE =           0.7500

           TOTAL OUT =       11361.6865             TOTAL OUT =          15.5838

            IN - OUT =       2.9297E-03              IN - OUT =       9.9182E-05

 PERCENT DISCREPANCY =           0.00     PERCENT DISCREPANCY =           0.00






         TIME SUMMARY AT END OF TIME STEP    1 IN STRESS PERIOD  300
                    SECONDS     MINUTES      HOURS       DAYS        YEARS
                    -----------------------------------------------------------
   TIME STEP LENGTH  86400.      1440.0      24.000      1.0000     2.73785E-03
 STRESS PERIOD TIME  86400.      1440.0      24.000      1.0000     2.73785E-03
         TOTAL TIME 2.59200E+07 4.32000E+05  7200.0      300.00     0.82136    
1
1
                            STRESS PERIOD NO.  301, LENGTH =   1.000000    
                            -----------------------------------------------

                              NUMBER OF TIME STEPS =     1

                               MULTIPLIER FOR DELT =     1.000

                            INITIAL TIME STEP SIZE =   1.000000    

 REUSING NON-PARAMETER RIVER REACHES FROM LAST STRESS PERIOD

      2 RIVER REACHES

                 RECHARGE =  6.000000E-04
 
 SOLVING FOR HEAD 

 OUTPUT CONTROL FOR STRESS PERIOD  301   TIME STEP    1
    SAVE HEAD FOR ALL LAYERS

 HEAD WILL BE SAVED ON UNIT   51 AT END OF TIME STEP    1, STRESS PERIOD  301
1
  VOLUMETRIC BUDGET FOR ENTIRE MODEL AT END OF TIME STEP    1, STRESS PERIOD 301
  ------------------------------------------------------------------------------

     CUMULATIVE VOLUMES      L**3       RATES FOR THIS TIME STEP      L**3/T
     ------------------                 ------------------------

           IN:                                      IN:
           ---                                      ---
             STORAGE =        4729.5264               STORAGE =           8.5500
       CONSTANT HEAD =           0.0000         CONSTANT HEAD =           0.0000
       RIVER LEAKAGE =         564.7135         RIVER LEAKAGE =           0.0000
            RECHARGE =        6082.0000              RECHARGE =           6.0000

            TOTAL IN =       11376.2402              TOTAL IN =          14.5500

          OUT:                                     OUT:
          ----                                     ----
             STORAGE =        5487.8389               STORAGE =           0.6033
       CONSTANT HEAD =         888.5983         CONSTANT HEAD =           3.1695
       RIVER LEAKAGE =         800.0499         RIVER LEAKAGE =          10.7772
            RECHARGE =        4199.7500              RECHARGE =           0.0000

           TOTAL OUT =       11376.2363             TOTAL OUT =          14.5500

            IN - OUT =       3.9062E-03              IN - OUT =      -7.1526E-05

 PERCENT DISCREPANCY =           0.00     PERCENT DISCREPANCY =          -0.00






         TIME SUMMARY AT END OF TIME STEP    1 IN STRESS PERIOD  301
                    SECONDS     MINUTES      HOURS       DAYS        YEARS
                    -----------------------------------------------------------
   TIME STEP LENGTH  86400.      1440.0      24.000      1.0000     2.73785E-03
 STRESS PERIOD TIME  86400.      1440.0      24.000      1.0000     2.73785E-03
         TOTAL TIME 2.60064E+07 4.33440E+05  7224.0      301.00     0.82409    
1
1
                            STRESS PERIOD NO.  302, LENGTH =   1.000000    
                            -----------------------------------------------

                              NUMBER OF TIME STEPS =     1

                               MULTIPLIER FOR DELT =     1.000

                            INITIAL TIME STEP SIZE =   1.000000    

 REUSING NON-PARAMETER RIVER REACHES FROM LAST STRESS PERIOD

      2 RIVER REACHES

                 RECHARGE =  3.000000E-04
 
 SOLVING FOR HEAD 

 OUTPUT CONTROL FOR STRESS PERIOD  302   TIME STEP    1
    SAVE HEAD FOR ALL LAYERS

 HEAD WILL BE SAVED ON UNIT   51 AT END OF TIME STEP    1, STRESS PERIOD  302
1
  VOLUMETRIC BUDGET FOR ENTIRE MODEL AT END OF TIME STEP    1, STRESS PERIOD 302
  ------------------------------------------------------------------------------

     CUMULATIVE VOLUMES      L**3       RATES FOR THIS TIME STEP      L**3/T
     ------------------                 ------------------------

           IN:                                      IN:
           ---                                      ---
             STORAGE =        4740.6953               STORAGE =          11.1690
       CONSTANT HEAD =           0.0000         CONSTANT HEAD =           0.0000
       RIVER LEAKAGE =         564.7135         RIVER LEAKAGE =           0.0000
            RECHARGE =        6085.0000              RECHARGE =           3.0000

            TOTAL IN =       11390.4082              TOTAL IN =          14.1690

          OUT:                                     OUT:
          ----                                     ----
             STORAGE =        5488.4277               STORAGE =           0.5889
       CONSTANT HEAD =         891.7745         CONSTANT HEAD =           3.1761
       RIVER LEAKAGE =         810.4536         RIVER LEAKAGE =          10.4038
            RECHARGE =        4199.7500              RECHARGE =           0.0000

           TOTAL OUT =       11390.4062             TOTAL OUT =          14.1688

            IN - OUT =       1.9531E-03              IN - OUT =       2.0409E-04

 PERCENT DISCREPANCY =           0.00     PERCENT DISCREPANCY =           0.00






         TIME SUMMARY AT END OF TIME STEP    1 IN STRESS PERIOD  302
                    SECONDS     MINUTES      HOURS       DAYS        YEARS
                    -----------------------------------------------------------
   TIME STEP LENGTH  86400.      1440.0      24.000      1.0000     2.73785E-03
 STRESS PERIOD TIME  86400.      1440.0      24.000      1.0000     2.73785E-03
         TOTAL TIME 2.60928E+07 4.34880E+05  7248.0      302.00     0.82683    
1
1
                            STRESS PERIOD NO.  303, LENGTH =   1.000000    
                            -----------------------------------------------

                              NUMBER OF TIME STEPS =     1

                               MULTIPLIER FOR DELT =     1.000

                            INITIAL TIME STEP SIZE =   1.000000    

 REUSING NON-PARAMETER RIVER REACHES FROM LAST STRESS PERIOD

      2 RIVER REACHES

                 RECHARGE =  9.000000E-04
 
 SOLVING FOR HEAD 

 OUTPUT CONTROL FOR STRESS PERIOD  303   TIME STEP    1
    SAVE HEAD FOR ALL LAYERS

 HEAD WILL BE SAVED ON UNIT   51 AT END OF TIME STEP    1, STRESS PERIOD  303
1
  VOLUMETRIC BUDGET FOR ENTIRE MODEL AT END OF TIME STEP    1, STRESS PERIOD 303
  ------------------------------------------------------------------------------

     CUMULATIVE VOLUMES      L**3       RATES FOR THIS TIME STEP      L**3/T
     ------------------                 ------------------------

           IN:                                      IN:
           ---                                      ---
             STORAGE =        4746.0469               STORAGE =           5.3517
       CONSTANT HEAD =           0.0000         CONSTANT HEAD =           0.0000
       RIVER LEAKAGE =         564.7135         RIVER LEAKAGE =           0.0000
            RECHARGE =        6094.0000              RECHARGE =           9.0000

            TOTAL IN =       11404.7598              TOTAL IN =          14.3517

          OUT:                                     OUT:
          ----                                     ----
             STORAGE =        5489.2896               STORAGE =           0.8620
       CONSTANT HEAD =         894.9572         CONSTANT HEAD =           3.1827
       RIVER LEAKAGE =         820.7604         RIVER LEAKAGE =          10.3068
            RECHARGE =        4199.7500              RECHARGE =           0.0000

           TOTAL OUT =       11404.7568             TOTAL OUT =          14.3515

            IN - OUT =       2.9297E-03              IN - OUT =       1.6975E-04

 PERCENT DISCREPANCY =           0.00     PERCENT DISCREPANCY =           0.00






         TIME SUMMARY AT END OF TIME STEP    1 IN STRESS PERIOD  303
                    SECONDS     MINUTES      HOURS       DAYS        YEARS
                    -----------------------------------------------------------
   TIME STEP LENGTH  86400.      1440.0      24.000      1.0000     2.73785E-03
 STRESS PERIOD TIME  86400.      1440.0      24.000      1.0000     2.73785E-03
         TOTAL TIME 2.61792E+07 4.36320E+05  7272.0      303.00     0.82957    
1
1
                            STRESS PERIOD NO.  304, LENGTH =   1.000000    
                            -----------------------------------------------

                              NUMBER OF TIME STEPS =     1

                               MULTIPLIER FOR DELT =     1.000

                            INITIAL TIME STEP SIZE =   1.000000    

 REUSING NON-PARAMETER RIVER REACHES FROM LAST STRESS PERIOD

      2 RIVER REACHES

                 RECHARGE =  7.200000E-03
 
 SOLVING FOR HEAD 

 OUTPUT CONTROL FOR STRESS PERIOD  304   TIME STEP    1
    SAVE HEAD FOR ALL LAYERS

 HEAD WILL BE SAVED ON UNIT   51 AT END OF TIME STEP    1, STRESS PERIOD  304
1
  VOLUMETRIC BUDGET FOR ENTIRE MODEL AT END OF TIME STEP    1, STRESS PERIOD 304
  ------------------------------------------------------------------------------

     CUMULATIVE VOLUMES      L**3       RATES FOR THIS TIME STEP      L**3/T
     ------------------                 ------------------------

           IN:                                      IN:
           ---                                      ---
             STORAGE =        4746.0469               STORAGE =           0.0000
       CONSTANT HEAD =           0.0000         CONSTANT HEAD =           0.0000
       RIVER LEAKAGE =         564.7135         RIVER LEAKAGE =           0.0000
            RECHARGE =        6166.0000              RECHARGE =          72.0000

            TOTAL IN =       11476.7598              TOTAL IN =          72.0000

          OUT:                                     OUT:
          ----                                     ----
             STORAGE =        5545.6982               STORAGE =          56.4087
       CONSTANT HEAD =         898.1485         CONSTANT HEAD =           3.1914
       RIVER LEAKAGE =         833.1604         RIVER LEAKAGE =          12.4000
            RECHARGE =        4199.7500              RECHARGE =           0.0000

           TOTAL OUT =       11476.7568             TOTAL OUT =          72.0000

            IN - OUT =       2.9297E-03              IN - OUT =      -1.5259E-05

 PERCENT DISCREPANCY =           0.00     PERCENT DISCREPANCY =          -0.00






         TIME SUMMARY AT END OF TIME STEP    1 IN STRESS PERIOD  304
                    SECONDS     MINUTES      HOURS       DAYS        YEARS
                    -----------------------------------------------------------
   TIME STEP LENGTH  86400.      1440.0      24.000      1.0000     2.73785E-03
 STRESS PERIOD TIME  86400.      1440.0      24.000      1.0000     2.73785E-03
         TOTAL TIME 2.62656E+07 4.37760E+05  7296.0      304.00     0.83231    
1
1
                            STRESS PERIOD NO.  305, LENGTH =   1.000000    
                            -----------------------------------------------

                              NUMBER OF TIME STEPS =     1

                               MULTIPLIER FOR DELT =     1.000

                            INITIAL TIME STEP SIZE =   1.000000    

 REUSING NON-PARAMETER RIVER REACHES FROM LAST STRESS PERIOD

      2 RIVER REACHES

                 RECHARGE =  3.000000E-04
 
 SOLVING FOR HEAD 

 OUTPUT CONTROL FOR STRESS PERIOD  305   TIME STEP    1
    SAVE HEAD FOR ALL LAYERS

 HEAD WILL BE SAVED ON UNIT   51 AT END OF TIME STEP    1, STRESS PERIOD  305
1
  VOLUMETRIC BUDGET FOR ENTIRE MODEL AT END OF TIME STEP    1, STRESS PERIOD 305
  ------------------------------------------------------------------------------

     CUMULATIVE VOLUMES      L**3       RATES FOR THIS TIME STEP      L**3/T
     ------------------                 ------------------------

           IN:                                      IN:
           ---                                      ---
             STORAGE =        4758.0532               STORAGE =          12.0063
       CONSTANT HEAD =           0.0000         CONSTANT HEAD =           0.0000
       RIVER LEAKAGE =         564.7135         RIVER LEAKAGE =           0.0000
            RECHARGE =        6169.0000              RECHARGE =           3.0000

            TOTAL IN =       11491.7666              TOTAL IN =          15.0063

          OUT:                                     OUT:
          ----                                     ----
             STORAGE =        5546.2896               STORAGE =           0.5912
       CONSTANT HEAD =         901.3470         CONSTANT HEAD =           3.1985
       RIVER LEAKAGE =         844.3768         RIVER LEAKAGE =          11.2164
            RECHARGE =        4199.7500              RECHARGE =           0.0000

           TOTAL OUT =       11491.7637             TOTAL OUT =          15.0060

            IN - OUT =       2.9297E-03              IN - OUT =       2.5558E-04

 PERCENT DISCREPANCY =           0.00     PERCENT DISCREPANCY =           0.00






         TIME SUMMARY AT END OF TIME STEP    1 IN STRESS PERIOD  305
                    SECONDS     MINUTES      HOURS       DAYS        YEARS
                    -----------------------------------------------------------
   TIME STEP LENGTH  86400.      1440.0      24.000      1.0000     2.73785E-03
 STRESS PERIOD TIME  86400.      1440.0      24.000      1.0000     2.73785E-03
         TOTAL TIME 2.63520E+07 4.39200E+05  7320.0      305.00     0.83504    
1
1
                            STRESS PERIOD NO.  306, LENGTH =   1.000000    
                            -----------------------------------------------

                              NUMBER OF TIME STEPS =     1

                               MULTIPLIER FOR DELT =     1.000

                            INITIAL TIME STEP SIZE =   1.000000    

 REUSING NON-PARAMETER RIVER REACHES FROM LAST STRESS PERIOD

      2 RIVER REACHES

                 RECHARGE =  6.600000E-03
 
 SOLVING FOR HEAD 

 OUTPUT CONTROL FOR STRESS PERIOD  306   TIME STEP    1
    SAVE HEAD FOR ALL LAYERS

 HEAD WILL BE SAVED ON UNIT   51 AT END OF TIME STEP    1, STRESS PERIOD  306
1
  VOLUMETRIC BUDGET FOR ENTIRE MODEL AT END OF TIME STEP    1, STRESS PERIOD 306
  ------------------------------------------------------------------------------

     CUMULATIVE VOLUMES      L**3       RATES FOR THIS TIME STEP      L**3/T
     ------------------                 ------------------------

           IN:                                      IN:
           ---                                      ---
             STORAGE =        4758.0532               STORAGE =           0.0000
       CONSTANT HEAD =           0.0000         CONSTANT HEAD =           0.0000
       RIVER LEAKAGE =         564.7135         RIVER LEAKAGE =           0.0000
            RECHARGE =        6235.0000              RECHARGE =          66.0000

            TOTAL IN =       11557.7666              TOTAL IN =          66.0000

          OUT:                                     OUT:
          ----                                     ----
             STORAGE =        5596.2129               STORAGE =          49.9231
       CONSTANT HEAD =         904.5543         CONSTANT HEAD =           3.2073
       RIVER LEAKAGE =         857.2464         RIVER LEAKAGE =          12.8696
            RECHARGE =        4199.7500              RECHARGE =           0.0000

           TOTAL OUT =       11557.7637             TOTAL OUT =          66.0000

            IN - OUT =       2.9297E-03              IN - OUT =      -4.5776E-05

 PERCENT DISCREPANCY =           0.00     PERCENT DISCREPANCY =          -0.00






         TIME SUMMARY AT END OF TIME STEP    1 IN STRESS PERIOD  306
                    SECONDS     MINUTES      HOURS       DAYS        YEARS
                    -----------------------------------------------------------
   TIME STEP LENGTH  86400.      1440.0      24.000      1.0000     2.73785E-03
 STRESS PERIOD TIME  86400.      1440.0      24.000      1.0000     2.73785E-03
         TOTAL TIME 2.64384E+07 4.40640E+05  7344.0      306.00     0.83778    
1

 Run end date and time (yyyy/mm/dd hh:mm:ss): 2019/05/12 21:43:47
 Elapsed run time:  0.702 Seconds

