                                  MODFLOW-2005     
      U.S. GEOLOGICAL SURVEY MODULAR FINITE-DIFFERENCE GROUND-WATER FLOW MODEL
                            VERSION 1.12.00 2/3/2017

 LIST FILE: average_1960-2018.list
                         UNIT    2

 OPENING average_1960-2018.dis
 FILE TYPE:DIS   UNIT   11   STATUS:OLD    
 FORMAT:FORMATTED              ACCESS:SEQUENTIAL          

 OPENING average_1960-2018.bas
 FILE TYPE:BAS6   UNIT   13   STATUS:OLD    
 FORMAT:FORMATTED              ACCESS:SEQUENTIAL          

 OPENING average_1960-2018.bcf
 FILE TYPE:BCF6   UNIT   15   STATUS:OLD    
 FORMAT:FORMATTED              ACCESS:SEQUENTIAL          

 OPENING average_1960-2018.oc
 FILE TYPE:OC   UNIT   14   STATUS:OLD    
 FORMAT:FORMATTED              ACCESS:SEQUENTIAL          

 OPENING average_1960-2018.pcg
 FILE TYPE:PCG   UNIT   27   STATUS:OLD    
 FORMAT:FORMATTED              ACCESS:SEQUENTIAL          

 OPENING average_1960-2018.rch
 FILE TYPE:RCH   UNIT   19   STATUS:OLD    
 FORMAT:FORMATTED              ACCESS:SEQUENTIAL          

 OPENING average_1960-2018.riv
 FILE TYPE:RIV   UNIT   18   STATUS:OLD    
 FORMAT:FORMATTED              ACCESS:SEQUENTIAL          

 OPENING average_1960-2018.hds
 FILE TYPE:DATA(BINARY)   UNIT   51   STATUS:REPLACE
 FORMAT:BINARY                 ACCESS:SEQUENTIAL          

 BAS -- BASIC PACKAGE, VERSION 7, 5/2/2005 INPUT READ FROM UNIT   13
 
 MODFLOW was compiled using mixed precision
 Precision of REAL variables:           6
 Precision of DOUBLE PRECISION variables:          15

 DISCRETIZATION INPUT DATA READ FROM UNIT   11
 # DIS package for  MODFLOW-2005, generated by Flopy.
    2 LAYERS         1 ROWS      1000 COLUMNS
  272 STRESS PERIOD(S) IN SIMULATION
 MODEL TIME UNIT IS DAYS
 MODEL LENGTH UNIT IS METERS
  Confining bed flag for each layer:
   0   0

                     DELR =   1.00000    

                     DELC =   10.0000    

 TOP ELEVATION OF LAYER 1 =   5.00000    

   MODEL LAYER BOTTOM EL. =  -5.00000     FOR LAYER   1

   MODEL LAYER BOTTOM EL. =  -25.0000     FOR LAYER   2


 STRESS PERIOD     LENGTH       TIME STEPS     MULTIPLIER FOR DELT    SS FLAG
 ----------------------------------------------------------------------------
        1         1.000000          1                    1.000         SS
        2         1.000000          1                    1.000         TR
        3         1.000000          1                    1.000         TR
        4         1.000000          1                    1.000         TR
        5         1.000000          1                    1.000         TR
        6         1.000000          1                    1.000         TR
        7         1.000000          1                    1.000         TR
        8         1.000000          1                    1.000         TR
        9         1.000000          1                    1.000         TR
       10         1.000000          1                    1.000         TR
       11         1.000000          1                    1.000         TR
       12         1.000000          1                    1.000         TR
       13         1.000000          1                    1.000         TR
       14         1.000000          1                    1.000         TR
       15         1.000000          1                    1.000         TR
       16         1.000000          1                    1.000         TR
       17         1.000000          1                    1.000         TR
       18         1.000000          1                    1.000         TR
       19         1.000000          1                    1.000         TR
       20         1.000000          1                    1.000         TR
       21         1.000000          1                    1.000         TR
       22         1.000000          1                    1.000         TR
       23         1.000000          1                    1.000         TR
       24         1.000000          1                    1.000         TR
       25         1.000000          1                    1.000         TR
       26         1.000000          1                    1.000         TR
       27         1.000000          1                    1.000         TR
       28         1.000000          1                    1.000         TR
       29         1.000000          1                    1.000         TR
       30         1.000000          1                    1.000         TR
       31         1.000000          1                    1.000         TR
       32         1.000000          1                    1.000         TR
       33         1.000000          1                    1.000         TR
       34         1.000000          1                    1.000         TR
       35         1.000000          1                    1.000         TR
       36         1.000000          1                    1.000         TR
       37         1.000000          1                    1.000         TR
       38         1.000000          1                    1.000         TR
       39         1.000000          1                    1.000         TR
       40         1.000000          1                    1.000         TR
       41         1.000000          1                    1.000         TR
       42         1.000000          1                    1.000         TR
       43         1.000000          1                    1.000         TR
       44         1.000000          1                    1.000         TR
       45         1.000000          1                    1.000         TR
       46         1.000000          1                    1.000         TR
       47         1.000000          1                    1.000         TR
       48         1.000000          1                    1.000         TR
       49         1.000000          1                    1.000         TR
       50         1.000000          1                    1.000         TR
       51         1.000000          1                    1.000         TR
       52         1.000000          1                    1.000         TR
       53         1.000000          1                    1.000         TR
       54         1.000000          1                    1.000         TR
       55         1.000000          1                    1.000         TR
       56         1.000000          1                    1.000         TR
       57         1.000000          1                    1.000         TR
       58         1.000000          1                    1.000         TR
       59         1.000000          1                    1.000         TR
       60         1.000000          1                    1.000         TR
       61         1.000000          1                    1.000         TR
       62         1.000000          1                    1.000         TR
       63         1.000000          1                    1.000         TR
       64         1.000000          1                    1.000         TR
       65         1.000000          1                    1.000         TR
       66         1.000000          1                    1.000         TR
       67         1.000000          1                    1.000         TR
       68         1.000000          1                    1.000         TR
       69         1.000000          1                    1.000         TR
       70         1.000000          1                    1.000         TR
       71         1.000000          1                    1.000         TR
       72         1.000000          1                    1.000         TR
       73         1.000000          1                    1.000         TR
       74         1.000000          1                    1.000         TR
       75         1.000000          1                    1.000         TR
       76         1.000000          1                    1.000         TR
       77         1.000000          1                    1.000         TR
       78         1.000000          1                    1.000         TR
       79         1.000000          1                    1.000         TR
       80         1.000000          1                    1.000         TR
       81         1.000000          1                    1.000         TR
       82         1.000000          1                    1.000         TR
       83         1.000000          1                    1.000         TR
       84         1.000000          1                    1.000         TR
       85         1.000000          1                    1.000         TR
       86         1.000000          1                    1.000         TR
       87         1.000000          1                    1.000         TR
       88         1.000000          1                    1.000         TR
       89         1.000000          1                    1.000         TR
       90         1.000000          1                    1.000         TR
       91         1.000000          1                    1.000         TR
       92         1.000000          1                    1.000         TR
       93         1.000000          1                    1.000         TR
       94         1.000000          1                    1.000         TR
       95         1.000000          1                    1.000         TR
       96         1.000000          1                    1.000         TR
       97         1.000000          1                    1.000         TR
       98         1.000000          1                    1.000         TR
       99         1.000000          1                    1.000         TR
      100         1.000000          1                    1.000         TR
      101         1.000000          1                    1.000         TR
      102         1.000000          1                    1.000         TR
      103         1.000000          1                    1.000         TR
      104         1.000000          1                    1.000         TR
      105         1.000000          1                    1.000         TR
      106         1.000000          1                    1.000         TR
      107         1.000000          1                    1.000         TR
      108         1.000000          1                    1.000         TR
      109         1.000000          1                    1.000         TR
      110         1.000000          1                    1.000         TR
      111         1.000000          1                    1.000         TR
      112         1.000000          1                    1.000         TR
      113         1.000000          1                    1.000         TR
      114         1.000000          1                    1.000         TR
      115         1.000000          1                    1.000         TR
      116         1.000000          1                    1.000         TR
      117         1.000000          1                    1.000         TR
      118         1.000000          1                    1.000         TR
      119         1.000000          1                    1.000         TR
      120         1.000000          1                    1.000         TR
      121         1.000000          1                    1.000         TR
      122         1.000000          1                    1.000         TR
      123         1.000000          1                    1.000         TR
      124         1.000000          1                    1.000         TR
      125         1.000000          1                    1.000         TR
      126         1.000000          1                    1.000         TR
      127         1.000000          1                    1.000         TR
      128         1.000000          1                    1.000         TR
      129         1.000000          1                    1.000         TR
      130         1.000000          1                    1.000         TR
      131         1.000000          1                    1.000         TR
      132         1.000000          1                    1.000         TR
      133         1.000000          1                    1.000         TR
      134         1.000000          1                    1.000         TR
      135         1.000000          1                    1.000         TR
      136         1.000000          1                    1.000         TR
      137         1.000000          1                    1.000         TR
      138         1.000000          1                    1.000         TR
      139         1.000000          1                    1.000         TR
      140         1.000000          1                    1.000         TR
      141         1.000000          1                    1.000         TR
      142         1.000000          1                    1.000         TR
      143         1.000000          1                    1.000         TR
      144         1.000000          1                    1.000         TR
      145         1.000000          1                    1.000         TR
      146         1.000000          1                    1.000         TR
      147         1.000000          1                    1.000         TR
      148         1.000000          1                    1.000         TR
      149         1.000000          1                    1.000         TR
      150         1.000000          1                    1.000         TR
      151         1.000000          1                    1.000         TR
      152         1.000000          1                    1.000         TR
      153         1.000000          1                    1.000         TR
      154         1.000000          1                    1.000         TR
      155         1.000000          1                    1.000         TR
      156         1.000000          1                    1.000         TR
      157         1.000000          1                    1.000         TR
      158         1.000000          1                    1.000         TR
      159         1.000000          1                    1.000         TR
      160         1.000000          1                    1.000         TR
      161         1.000000          1                    1.000         TR
      162         1.000000          1                    1.000         TR
      163         1.000000          1                    1.000         TR
      164         1.000000          1                    1.000         TR
      165         1.000000          1                    1.000         TR
      166         1.000000          1                    1.000         TR
      167         1.000000          1                    1.000         TR
      168         1.000000          1                    1.000         TR
      169         1.000000          1                    1.000         TR
      170         1.000000          1                    1.000         TR
      171         1.000000          1                    1.000         TR
      172         1.000000          1                    1.000         TR
      173         1.000000          1                    1.000         TR
      174         1.000000          1                    1.000         TR
      175         1.000000          1                    1.000         TR
      176         1.000000          1                    1.000         TR
      177         1.000000          1                    1.000         TR
      178         1.000000          1                    1.000         TR
      179         1.000000          1                    1.000         TR
      180         1.000000          1                    1.000         TR
      181         1.000000          1                    1.000         TR
      182         1.000000          1                    1.000         TR
      183         1.000000          1                    1.000         TR
      184         1.000000          1                    1.000         TR
      185         1.000000          1                    1.000         TR
      186         1.000000          1                    1.000         TR
      187         1.000000          1                    1.000         TR
      188         1.000000          1                    1.000         TR
      189         1.000000          1                    1.000         TR
      190         1.000000          1                    1.000         TR
      191         1.000000          1                    1.000         TR
      192         1.000000          1                    1.000         TR
      193         1.000000          1                    1.000         TR
      194         1.000000          1                    1.000         TR
      195         1.000000          1                    1.000         TR
      196         1.000000          1                    1.000         TR
      197         1.000000          1                    1.000         TR
      198         1.000000          1                    1.000         TR
      199         1.000000          1                    1.000         TR
      200         1.000000          1                    1.000         TR
      201         1.000000          1                    1.000         TR
      202         1.000000          1                    1.000         TR
      203         1.000000          1                    1.000         TR
      204         1.000000          1                    1.000         TR
      205         1.000000          1                    1.000         TR
      206         1.000000          1                    1.000         TR
      207         1.000000          1                    1.000         TR
      208         1.000000          1                    1.000         TR
      209         1.000000          1                    1.000         TR
      210         1.000000          1                    1.000         TR
      211         1.000000          1                    1.000         TR
      212         1.000000          1                    1.000         TR
      213         1.000000          1                    1.000         TR
      214         1.000000          1                    1.000         TR
      215         1.000000          1                    1.000         TR
      216         1.000000          1                    1.000         TR
      217         1.000000          1                    1.000         TR
      218         1.000000          1                    1.000         TR
      219         1.000000          1                    1.000         TR
      220         1.000000          1                    1.000         TR
      221         1.000000          1                    1.000         TR
      222         1.000000          1                    1.000         TR
      223         1.000000          1                    1.000         TR
      224         1.000000          1                    1.000         TR
      225         1.000000          1                    1.000         TR
      226         1.000000          1                    1.000         TR
      227         1.000000          1                    1.000         TR
      228         1.000000          1                    1.000         TR
      229         1.000000          1                    1.000         TR
      230         1.000000          1                    1.000         TR
      231         1.000000          1                    1.000         TR
      232         1.000000          1                    1.000         TR
      233         1.000000          1                    1.000         TR
      234         1.000000          1                    1.000         TR
      235         1.000000          1                    1.000         TR
      236         1.000000          1                    1.000         TR
      237         1.000000          1                    1.000         TR
      238         1.000000          1                    1.000         TR
      239         1.000000          1                    1.000         TR
      240         1.000000          1                    1.000         TR
      241         1.000000          1                    1.000         TR
      242         1.000000          1                    1.000         TR
      243         1.000000          1                    1.000         TR
      244         1.000000          1                    1.000         TR
      245         1.000000          1                    1.000         TR
      246         1.000000          1                    1.000         TR
      247         1.000000          1                    1.000         TR
      248         1.000000          1                    1.000         TR
      249         1.000000          1                    1.000         TR
      250         1.000000          1                    1.000         TR
      251         1.000000          1                    1.000         TR
      252         1.000000          1                    1.000         TR
      253         1.000000          1                    1.000         TR
      254         1.000000          1                    1.000         TR
      255         1.000000          1                    1.000         TR
      256         1.000000          1                    1.000         TR
      257         1.000000          1                    1.000         TR
      258         1.000000          1                    1.000         TR
      259         1.000000          1                    1.000         TR
      260         1.000000          1                    1.000         TR
      261         1.000000          1                    1.000         TR
      262         1.000000          1                    1.000         TR
      263         1.000000          1                    1.000         TR
      264         1.000000          1                    1.000         TR
      265         1.000000          1                    1.000         TR
      266         1.000000          1                    1.000         TR
      267         1.000000          1                    1.000         TR
      268         1.000000          1                    1.000         TR
      269         1.000000          1                    1.000         TR
      270         1.000000          1                    1.000         TR
      271         1.000000          1                    1.000         TR
      272         1.000000          1                    1.000         TR

 COMBINED STEADY-STATE AND TRANSIENT SIMULATION



 
 # BAS6 package for  MODFLOW-2005, generated by Flopy.                           
 THE FREE FORMAT OPTION HAS BEEN SELECTED



                     BOUNDARY ARRAY FOR LAYER   1
 READING ON UNIT   13 WITH FORMAT: (1000I10)           



                     BOUNDARY ARRAY FOR LAYER   2
 READING ON UNIT   13 WITH FORMAT: (1000I10)           

 AQUIFER HEAD WILL BE SET TO  -999.99     AT ALL NO-FLOW NODES (IBOUND=0).

             INITIAL HEAD =   0.00000     FOR LAYER   1

             INITIAL HEAD =   0.00000     FOR LAYER   2
 # OC package for  MODFLOW-2005, generated by Flopy.

 OUTPUT CONTROL IS SPECIFIED ONLY AT TIME STEPS FOR WHICH OUTPUT IS DESIRED
 COMPACT CELL-BY-CELL BUDGET FILES WILL BE WRITTEN
 AUXILIARY DATA WILL BE SAVED IN CELL-BY-CELL BUDGET FILES
 HEAD PRINT FORMAT CODE IS   0    DRAWDOWN PRINT FORMAT CODE IS   0
 HEADS WILL BE SAVED ON UNIT   51    DRAWDOWNS WILL BE SAVED ON UNIT    0

 BCF -- BLOCK-CENTERED FLOW PACKAGE, VERSION 7, 5/2/2005
         INPUT READ FROM UNIT 15
 TRANSIENT SIMULATION
 HEAD AT CELLS THAT CONVERT TO DRY= -0.10000E+31
 WETTING CAPABILITY IS NOT ACTIVE
      LAYER  LAYER-TYPE CODE     INTERBLOCK T
      --------------------------------------------
         1            1          0 -- HARMONIC    
         2            3          0 -- HARMONIC    

 COLUMN TO ROW ANISOTROPY =   1.00000    

     PRIMARY STORAGE COEF =  0.150000     FOR LAYER   1

    HYD. COND. ALONG ROWS =   10.0000     FOR LAYER   1

 VERT HYD COND /THICKNESS =  1.000000E-04 FOR LAYER   1

     PRIMARY STORAGE COEF =  0.150000     FOR LAYER   2

    HYD. COND. ALONG ROWS =   10.0000     FOR LAYER   2

   SECONDARY STORAGE COEF =  0.150000     FOR LAYER   2

 RIV -- RIVER PACKAGE, VERSION 7, 5/2/2005 INPUT READ FROM UNIT   18
 # RIV package for  MODFLOW-2005, generated by Flopy.
 No named parameters
 MAXIMUM OF      2 ACTIVE RIVER REACHES AT ONE TIME


     0 River parameters

 RCH -- RECHARGE PACKAGE, VERSION 7, 5/2/2005 INPUT READ FROM UNIT   19
 # RCH package for  MODFLOW-2005, generated by Flopy.
 No named parameters
 OPTION 3 -- RECHARGE TO HIGHEST ACTIVE NODE IN EACH VERTICAL COLUMN


     0 Recharge parameters

 PCG -- CONJUGATE-GRADIENT SOLUTION PACKAGE, VERSION 7, 5/2/2005
 # PCG package for  MODFLOW-2005, generated by Flopy.
 MAXIMUM OF     50 CALLS OF SOLUTION ROUTINE
 MAXIMUM OF     30 INTERNAL ITERATIONS PER CALL TO SOLUTION ROUTINE
 MATRIX PRECONDITIONING TYPE :    1



                                    SOLUTION BY THE CONJUGATE-GRADIENT METHOD
                                   -------------------------------------------
                    MAXIMUM NUMBER OF CALLS TO PCG ROUTINE =       50
                        MAXIMUM ITERATIONS PER CALL TO PCG =       30
                               MATRIX PRECONDITIONING TYPE =        1
        RELAXATION FACTOR (ONLY USED WITH PRECOND. TYPE 1) =    0.10000E+01
 PARAMETER OF POLYNOMIAL PRECOND. = 2 (2) OR IS CALCULATED :        0
                         HEAD CHANGE CRITERION FOR CLOSURE =    0.10000E-04
                     RESIDUAL CHANGE CRITERION FOR CLOSURE =    0.10000E-04
            PCG HEAD AND RESIDUAL CHANGE PRINTOUT INTERVAL =      999
     PRINTING FROM SOLVER IS LIMITED(1) OR SUPPRESSED (>1) =        3
                            STEADY-STATE DAMPING PARAMETER =    0.10000E+01
                               TRANSIENT DAMPING PARAMETER =    0.10000E+01
1
                            STRESS PERIOD NO.    1, LENGTH =   1.000000    
                            -----------------------------------------------

                              NUMBER OF TIME STEPS =     1

                               MULTIPLIER FOR DELT =     1.000

                            INITIAL TIME STEP SIZE =   1.000000    

 REACH NO.  LAYER   ROW   COL     STAGE      CONDUCTANCE     BOTTOM EL.         
 -------------------------------------------------------------------------------
      1      1      1      1       3.000           100.0           2.000    
      2      1      1   1000       3.000           100.0           2.000    

      2 RIVER REACHES

                 RECHARGE =  7.000000E-04
 
 SOLVING FOR HEAD 

 OUTPUT CONTROL FOR STRESS PERIOD    1   TIME STEP    1
    SAVE HEAD FOR ALL LAYERS

 HEAD WILL BE SAVED ON UNIT   51 AT END OF TIME STEP    1, STRESS PERIOD    1
1
  VOLUMETRIC BUDGET FOR ENTIRE MODEL AT END OF TIME STEP    1, STRESS PERIOD   1
  ------------------------------------------------------------------------------

     CUMULATIVE VOLUMES      L**3       RATES FOR THIS TIME STEP      L**3/T
     ------------------                 ------------------------

           IN:                                      IN:
           ---                                      ---
             STORAGE =           0.0000               STORAGE =           0.0000
       CONSTANT HEAD =           0.0000         CONSTANT HEAD =           0.0000
       RIVER LEAKAGE =           0.0000         RIVER LEAKAGE =           0.0000
            RECHARGE =           7.0000              RECHARGE =           7.0000

            TOTAL IN =           7.0000              TOTAL IN =           7.0000

          OUT:                                     OUT:
          ----                                     ----
             STORAGE =           0.0000               STORAGE =           0.0000
       CONSTANT HEAD =           3.2546         CONSTANT HEAD =           3.2546
       RIVER LEAKAGE =           3.7454         RIVER LEAKAGE =           3.7454
            RECHARGE =           0.0000              RECHARGE =           0.0000

           TOTAL OUT =           7.0000             TOTAL OUT =           7.0000

            IN - OUT =       2.2888E-05              IN - OUT =       2.2888E-05

 PERCENT DISCREPANCY =           0.00     PERCENT DISCREPANCY =           0.00






         TIME SUMMARY AT END OF TIME STEP    1 IN STRESS PERIOD    1
                    SECONDS     MINUTES      HOURS       DAYS        YEARS
                    -----------------------------------------------------------
   TIME STEP LENGTH  86400.      1440.0      24.000      1.0000     2.73785E-03
 STRESS PERIOD TIME  86400.      1440.0      24.000      1.0000     2.73785E-03
         TOTAL TIME  86400.      1440.0      24.000      1.0000     2.73785E-03
1
1
                            STRESS PERIOD NO.    2, LENGTH =   1.000000    
                            -----------------------------------------------

                              NUMBER OF TIME STEPS =     1

                               MULTIPLIER FOR DELT =     1.000

                            INITIAL TIME STEP SIZE =   1.000000    

 REUSING NON-PARAMETER RIVER REACHES FROM LAST STRESS PERIOD

      2 RIVER REACHES

                 RECHARGE =  2.745763E-03
 
 SOLVING FOR HEAD 

 OUTPUT CONTROL FOR STRESS PERIOD    2   TIME STEP    1
    SAVE HEAD FOR ALL LAYERS

 HEAD WILL BE SAVED ON UNIT   51 AT END OF TIME STEP    1, STRESS PERIOD    2
1
  VOLUMETRIC BUDGET FOR ENTIRE MODEL AT END OF TIME STEP    1, STRESS PERIOD   2
  ------------------------------------------------------------------------------

     CUMULATIVE VOLUMES      L**3       RATES FOR THIS TIME STEP      L**3/T
     ------------------                 ------------------------

           IN:                                      IN:
           ---                                      ---
             STORAGE =           0.0000               STORAGE =           0.0000
       CONSTANT HEAD =           0.0000         CONSTANT HEAD =           0.0000
       RIVER LEAKAGE =           0.0000         RIVER LEAKAGE =           0.0000
            RECHARGE =          34.4576              RECHARGE =          27.4576

            TOTAL IN =          34.4576              TOTAL IN =          27.4576

          OUT:                                     OUT:
          ----                                     ----
             STORAGE =          19.7397               STORAGE =          19.7397
       CONSTANT HEAD =           6.5098         CONSTANT HEAD =           3.2553
       RIVER LEAKAGE =           8.2081         RIVER LEAKAGE =           4.4627
            RECHARGE =           0.0000              RECHARGE =           0.0000

           TOTAL OUT =          34.4577             TOTAL OUT =          27.4577

            IN - OUT =      -5.3406E-05              IN - OUT =      -7.4387E-05

 PERCENT DISCREPANCY =          -0.00     PERCENT DISCREPANCY =          -0.00






         TIME SUMMARY AT END OF TIME STEP    1 IN STRESS PERIOD    2
                    SECONDS     MINUTES      HOURS       DAYS        YEARS
                    -----------------------------------------------------------
   TIME STEP LENGTH  86400.      1440.0      24.000      1.0000     2.73785E-03
 STRESS PERIOD TIME  86400.      1440.0      24.000      1.0000     2.73785E-03
         TOTAL TIME 1.72800E+05  2880.0      48.000      2.0000     5.47570E-03
1
1
                            STRESS PERIOD NO.    3, LENGTH =   1.000000    
                            -----------------------------------------------

                              NUMBER OF TIME STEPS =     1

                               MULTIPLIER FOR DELT =     1.000

                            INITIAL TIME STEP SIZE =   1.000000    

 REUSING NON-PARAMETER RIVER REACHES FROM LAST STRESS PERIOD

      2 RIVER REACHES

                 RECHARGE =  2.711441E-03
 
 SOLVING FOR HEAD 

 OUTPUT CONTROL FOR STRESS PERIOD    3   TIME STEP    1
    SAVE HEAD FOR ALL LAYERS

 HEAD WILL BE SAVED ON UNIT   51 AT END OF TIME STEP    1, STRESS PERIOD    3
1
  VOLUMETRIC BUDGET FOR ENTIRE MODEL AT END OF TIME STEP    1, STRESS PERIOD   3
  ------------------------------------------------------------------------------

     CUMULATIVE VOLUMES      L**3       RATES FOR THIS TIME STEP      L**3/T
     ------------------                 ------------------------

           IN:                                      IN:
           ---                                      ---
             STORAGE =           0.0000               STORAGE =           0.0000
       CONSTANT HEAD =           0.0000         CONSTANT HEAD =           0.0000
       RIVER LEAKAGE =           0.0000         RIVER LEAKAGE =           0.0000
            RECHARGE =          61.5720              RECHARGE =          27.1144

            TOTAL IN =          61.5720              TOTAL IN =          27.1144

          OUT:                                     OUT:
          ----                                     ----
             STORAGE =          38.6987               STORAGE =          18.9590
       CONSTANT HEAD =           9.7661         CONSTANT HEAD =           3.2563
       RIVER LEAKAGE =          13.1072         RIVER LEAKAGE =           4.8991
            RECHARGE =           0.0000              RECHARGE =           0.0000

           TOTAL OUT =          61.5721             TOTAL OUT =          27.1144

            IN - OUT =      -2.2888E-05              IN - OUT =       3.0518E-05

 PERCENT DISCREPANCY =          -0.00     PERCENT DISCREPANCY =           0.00






         TIME SUMMARY AT END OF TIME STEP    1 IN STRESS PERIOD    3
                    SECONDS     MINUTES      HOURS       DAYS        YEARS
                    -----------------------------------------------------------
   TIME STEP LENGTH  86400.      1440.0      24.000      1.0000     2.73785E-03
 STRESS PERIOD TIME  86400.      1440.0      24.000      1.0000     2.73785E-03
         TOTAL TIME 2.59200E+05  4320.0      72.000      3.0000     8.21355E-03
1
1
                            STRESS PERIOD NO.    4, LENGTH =   1.000000    
                            -----------------------------------------------

                              NUMBER OF TIME STEPS =     1

                               MULTIPLIER FOR DELT =     1.000

                            INITIAL TIME STEP SIZE =   1.000000    

 REUSING NON-PARAMETER RIVER REACHES FROM LAST STRESS PERIOD

      2 RIVER REACHES

                 RECHARGE =  3.042241E-03
 
 SOLVING FOR HEAD 

 OUTPUT CONTROL FOR STRESS PERIOD    4   TIME STEP    1
    SAVE HEAD FOR ALL LAYERS

 HEAD WILL BE SAVED ON UNIT   51 AT END OF TIME STEP    1, STRESS PERIOD    4
1
  VOLUMETRIC BUDGET FOR ENTIRE MODEL AT END OF TIME STEP    1, STRESS PERIOD   4
  ------------------------------------------------------------------------------

     CUMULATIVE VOLUMES      L**3       RATES FOR THIS TIME STEP      L**3/T
     ------------------                 ------------------------

           IN:                                      IN:
           ---                                      ---
             STORAGE =           0.0000               STORAGE =           0.0000
       CONSTANT HEAD =           0.0000         CONSTANT HEAD =           0.0000
       RIVER LEAKAGE =           0.0000         RIVER LEAKAGE =           0.0000
            RECHARGE =          91.9944              RECHARGE =          30.4224

            TOTAL IN =          91.9944              TOTAL IN =          30.4224

          OUT:                                     OUT:
          ----                                     ----
             STORAGE =          60.5074               STORAGE =          21.8087
       CONSTANT HEAD =          13.0238         CONSTANT HEAD =           3.2576
       RIVER LEAKAGE =          18.4631         RIVER LEAKAGE =           5.3559
            RECHARGE =           0.0000              RECHARGE =           0.0000

           TOTAL OUT =          91.9943             TOTAL OUT =          30.4223

            IN - OUT =       1.2970E-04              IN - OUT =       1.5068E-04

 PERCENT DISCREPANCY =           0.00     PERCENT DISCREPANCY =           0.00






         TIME SUMMARY AT END OF TIME STEP    1 IN STRESS PERIOD    4
                    SECONDS     MINUTES      HOURS       DAYS        YEARS
                    -----------------------------------------------------------
   TIME STEP LENGTH  86400.      1440.0      24.000      1.0000     2.73785E-03
 STRESS PERIOD TIME  86400.      1440.0      24.000      1.0000     2.73785E-03
         TOTAL TIME 3.45600E+05  5760.0      96.000      4.0000     1.09514E-02
1
1
                            STRESS PERIOD NO.    5, LENGTH =   1.000000    
                            -----------------------------------------------

                              NUMBER OF TIME STEPS =     1

                               MULTIPLIER FOR DELT =     1.000

                            INITIAL TIME STEP SIZE =   1.000000    

 REUSING NON-PARAMETER RIVER REACHES FROM LAST STRESS PERIOD

      2 RIVER REACHES

                 RECHARGE =  2.830603E-03
 
 SOLVING FOR HEAD 

 OUTPUT CONTROL FOR STRESS PERIOD    5   TIME STEP    1
    SAVE HEAD FOR ALL LAYERS

 HEAD WILL BE SAVED ON UNIT   51 AT END OF TIME STEP    1, STRESS PERIOD    5
1
  VOLUMETRIC BUDGET FOR ENTIRE MODEL AT END OF TIME STEP    1, STRESS PERIOD   5
  ------------------------------------------------------------------------------

     CUMULATIVE VOLUMES      L**3       RATES FOR THIS TIME STEP      L**3/T
     ------------------                 ------------------------

           IN:                                      IN:
           ---                                      ---
             STORAGE =           0.0000               STORAGE =           0.0000
       CONSTANT HEAD =           0.0000         CONSTANT HEAD =           0.0000
       RIVER LEAKAGE =           0.0000         RIVER LEAKAGE =           0.0000
            RECHARGE =         120.3005              RECHARGE =          28.3060

            TOTAL IN =         120.3005              TOTAL IN =          28.3060

          OUT:                                     OUT:
          ----                                     ----
             STORAGE =          79.9119               STORAGE =          19.4045
       CONSTANT HEAD =          16.2829         CONSTANT HEAD =           3.2592
       RIVER LEAKAGE =          24.1055         RIVER LEAKAGE =           5.6423
            RECHARGE =           0.0000              RECHARGE =           0.0000

           TOTAL OUT =         120.3003             TOTAL OUT =          28.3060

            IN - OUT =       1.2970E-04              IN - OUT =       1.9073E-06

 PERCENT DISCREPANCY =           0.00     PERCENT DISCREPANCY =           0.00






         TIME SUMMARY AT END OF TIME STEP    1 IN STRESS PERIOD    5
                    SECONDS     MINUTES      HOURS       DAYS        YEARS
                    -----------------------------------------------------------
   TIME STEP LENGTH  86400.      1440.0      24.000      1.0000     2.73785E-03
 STRESS PERIOD TIME  86400.      1440.0      24.000      1.0000     2.73785E-03
         TOTAL TIME 4.32000E+05  7200.0      120.00      5.0000     1.36893E-02
1
1
                            STRESS PERIOD NO.    6, LENGTH =   1.000000    
                            -----------------------------------------------

                              NUMBER OF TIME STEPS =     1

                               MULTIPLIER FOR DELT =     1.000

                            INITIAL TIME STEP SIZE =   1.000000    

 REUSING NON-PARAMETER RIVER REACHES FROM LAST STRESS PERIOD

      2 RIVER REACHES

                 RECHARGE =  2.316379E-03
 
 SOLVING FOR HEAD 

 OUTPUT CONTROL FOR STRESS PERIOD    6   TIME STEP    1
    SAVE HEAD FOR ALL LAYERS

 HEAD WILL BE SAVED ON UNIT   51 AT END OF TIME STEP    1, STRESS PERIOD    6
1
  VOLUMETRIC BUDGET FOR ENTIRE MODEL AT END OF TIME STEP    1, STRESS PERIOD   6
  ------------------------------------------------------------------------------

     CUMULATIVE VOLUMES      L**3       RATES FOR THIS TIME STEP      L**3/T
     ------------------                 ------------------------

           IN:                                      IN:
           ---                                      ---
             STORAGE =           0.0000               STORAGE =           0.0000
       CONSTANT HEAD =           0.0000         CONSTANT HEAD =           0.0000
       RIVER LEAKAGE =           0.0000         RIVER LEAKAGE =           0.0000
            RECHARGE =         143.4643              RECHARGE =          23.1638

            TOTAL IN =         143.4643              TOTAL IN =          23.1638

          OUT:                                     OUT:
          ----                                     ----
             STORAGE =          94.0893               STORAGE =          14.1774
       CONSTANT HEAD =          19.5436         CONSTANT HEAD =           3.2607
       RIVER LEAKAGE =          29.8312         RIVER LEAKAGE =           5.7257
            RECHARGE =           0.0000              RECHARGE =           0.0000

           TOTAL OUT =         143.4642             TOTAL OUT =          23.1638

            IN - OUT =       9.1553E-05              IN - OUT =      -2.8610E-05

 PERCENT DISCREPANCY =           0.00     PERCENT DISCREPANCY =          -0.00






         TIME SUMMARY AT END OF TIME STEP    1 IN STRESS PERIOD    6
                    SECONDS     MINUTES      HOURS       DAYS        YEARS
                    -----------------------------------------------------------
   TIME STEP LENGTH  86400.      1440.0      24.000      1.0000     2.73785E-03
 STRESS PERIOD TIME  86400.      1440.0      24.000      1.0000     2.73785E-03
         TOTAL TIME 5.18400E+05  8640.0      144.00      6.0000     1.64271E-02
1
1
                            STRESS PERIOD NO.    7, LENGTH =   1.000000    
                            -----------------------------------------------

                              NUMBER OF TIME STEPS =     1

                               MULTIPLIER FOR DELT =     1.000

                            INITIAL TIME STEP SIZE =   1.000000    

 REUSING NON-PARAMETER RIVER REACHES FROM LAST STRESS PERIOD

      2 RIVER REACHES

                 RECHARGE =  3.361638E-03
 
 SOLVING FOR HEAD 

 OUTPUT CONTROL FOR STRESS PERIOD    7   TIME STEP    1
    SAVE HEAD FOR ALL LAYERS

 HEAD WILL BE SAVED ON UNIT   51 AT END OF TIME STEP    1, STRESS PERIOD    7
1
  VOLUMETRIC BUDGET FOR ENTIRE MODEL AT END OF TIME STEP    1, STRESS PERIOD   7
  ------------------------------------------------------------------------------

     CUMULATIVE VOLUMES      L**3       RATES FOR THIS TIME STEP      L**3/T
     ------------------                 ------------------------

           IN:                                      IN:
           ---                                      ---
             STORAGE =           0.0000               STORAGE =           0.0000
       CONSTANT HEAD =           0.0000         CONSTANT HEAD =           0.0000
       RIVER LEAKAGE =           0.0000         RIVER LEAKAGE =           0.0000
            RECHARGE =         177.0806              RECHARGE =          33.6164

            TOTAL IN =         177.0806              TOTAL IN =          33.6164

          OUT:                                     OUT:
          ----                                     ----
             STORAGE =         118.2218               STORAGE =          24.1324
       CONSTANT HEAD =          22.8063         CONSTANT HEAD =           3.2626
       RIVER LEAKAGE =          36.0527         RIVER LEAKAGE =           6.2215
            RECHARGE =           0.0000              RECHARGE =           0.0000

           TOTAL OUT =         177.0807             TOTAL OUT =          33.6165

            IN - OUT =      -4.5776E-05              IN - OUT =      -1.5259E-04

 PERCENT DISCREPANCY =          -0.00     PERCENT DISCREPANCY =          -0.00






         TIME SUMMARY AT END OF TIME STEP    1 IN STRESS PERIOD    7
                    SECONDS     MINUTES      HOURS       DAYS        YEARS
                    -----------------------------------------------------------
   TIME STEP LENGTH  86400.      1440.0      24.000      1.0000     2.73785E-03
 STRESS PERIOD TIME  86400.      1440.0      24.000      1.0000     2.73785E-03
         TOTAL TIME 6.04800E+05  10080.      168.00      7.0000     1.91650E-02
1
1
                            STRESS PERIOD NO.    8, LENGTH =   1.000000    
                            -----------------------------------------------

                              NUMBER OF TIME STEPS =     1

                               MULTIPLIER FOR DELT =     1.000

                            INITIAL TIME STEP SIZE =   1.000000    

 REUSING NON-PARAMETER RIVER REACHES FROM LAST STRESS PERIOD

      2 RIVER REACHES

                 RECHARGE =  2.455172E-03
 
 SOLVING FOR HEAD 

 OUTPUT CONTROL FOR STRESS PERIOD    8   TIME STEP    1
    SAVE HEAD FOR ALL LAYERS

 HEAD WILL BE SAVED ON UNIT   51 AT END OF TIME STEP    1, STRESS PERIOD    8
1
  VOLUMETRIC BUDGET FOR ENTIRE MODEL AT END OF TIME STEP    1, STRESS PERIOD   8
  ------------------------------------------------------------------------------

     CUMULATIVE VOLUMES      L**3       RATES FOR THIS TIME STEP      L**3/T
     ------------------                 ------------------------

           IN:                                      IN:
           ---                                      ---
             STORAGE =           0.0000               STORAGE =           0.0000
       CONSTANT HEAD =           0.0000         CONSTANT HEAD =           0.0000
       RIVER LEAKAGE =           0.0000         RIVER LEAKAGE =           0.0000
            RECHARGE =         201.6324              RECHARGE =          24.5517

            TOTAL IN =         201.6324              TOTAL IN =          24.5517

          OUT:                                     OUT:
          ----                                     ----
             STORAGE =         133.2412               STORAGE =          15.0194
       CONSTANT HEAD =          26.0708         CONSTANT HEAD =           3.2645
       RIVER LEAKAGE =          42.3206         RIVER LEAKAGE =           6.2680
            RECHARGE =           0.0000              RECHARGE =           0.0000

           TOTAL OUT =         201.6326             TOTAL OUT =          24.5519

            IN - OUT =      -2.2888E-04              IN - OUT =      -1.7548E-04

 PERCENT DISCREPANCY =          -0.00     PERCENT DISCREPANCY =          -0.00






         TIME SUMMARY AT END OF TIME STEP    1 IN STRESS PERIOD    8
                    SECONDS     MINUTES      HOURS       DAYS        YEARS
                    -----------------------------------------------------------
   TIME STEP LENGTH  86400.      1440.0      24.000      1.0000     2.73785E-03
 STRESS PERIOD TIME  86400.      1440.0      24.000      1.0000     2.73785E-03
         TOTAL TIME 6.91200E+05  11520.      192.00      8.0000     2.19028E-02
1
1
                            STRESS PERIOD NO.    9, LENGTH =   1.000000    
                            -----------------------------------------------

                              NUMBER OF TIME STEPS =     1

                               MULTIPLIER FOR DELT =     1.000

                            INITIAL TIME STEP SIZE =   1.000000    

 REUSING NON-PARAMETER RIVER REACHES FROM LAST STRESS PERIOD

      2 RIVER REACHES

                 RECHARGE =  1.496121E-03
 
 SOLVING FOR HEAD 

 OUTPUT CONTROL FOR STRESS PERIOD    9   TIME STEP    1
    SAVE HEAD FOR ALL LAYERS

 HEAD WILL BE SAVED ON UNIT   51 AT END OF TIME STEP    1, STRESS PERIOD    9
1
  VOLUMETRIC BUDGET FOR ENTIRE MODEL AT END OF TIME STEP    1, STRESS PERIOD   9
  ------------------------------------------------------------------------------

     CUMULATIVE VOLUMES      L**3       RATES FOR THIS TIME STEP      L**3/T
     ------------------                 ------------------------

           IN:                                      IN:
           ---                                      ---
             STORAGE =           0.3084               STORAGE =           0.3084
       CONSTANT HEAD =           0.0000         CONSTANT HEAD =           0.0000
       RIVER LEAKAGE =           0.0000         RIVER LEAKAGE =           0.0000
            RECHARGE =         216.5936              RECHARGE =          14.9612

            TOTAL IN =         216.9019              TOTAL IN =          15.2696

          OUT:                                     OUT:
          ----                                     ----
             STORAGE =         139.2009               STORAGE =           5.9597
       CONSTANT HEAD =          29.3369         CONSTANT HEAD =           3.2661
       RIVER LEAKAGE =          48.3644         RIVER LEAKAGE =           6.0438
            RECHARGE =           0.0000              RECHARGE =           0.0000

           TOTAL OUT =         216.9022             TOTAL OUT =          15.2696

            IN - OUT =      -2.2888E-04              IN - OUT =      -9.5367E-07

 PERCENT DISCREPANCY =          -0.00     PERCENT DISCREPANCY =          -0.00






         TIME SUMMARY AT END OF TIME STEP    1 IN STRESS PERIOD    9
                    SECONDS     MINUTES      HOURS       DAYS        YEARS
                    -----------------------------------------------------------
   TIME STEP LENGTH  86400.      1440.0      24.000      1.0000     2.73785E-03
 STRESS PERIOD TIME  86400.      1440.0      24.000      1.0000     2.73785E-03
         TOTAL TIME 7.77600E+05  12960.      216.00      9.0000     2.46407E-02
1
1
                            STRESS PERIOD NO.   10, LENGTH =   1.000000    
                            -----------------------------------------------

                              NUMBER OF TIME STEPS =     1

                               MULTIPLIER FOR DELT =     1.000

                            INITIAL TIME STEP SIZE =   1.000000    

 REUSING NON-PARAMETER RIVER REACHES FROM LAST STRESS PERIOD

      2 RIVER REACHES

                 RECHARGE =  1.755172E-03
 
 SOLVING FOR HEAD 

 OUTPUT CONTROL FOR STRESS PERIOD   10   TIME STEP    1
    SAVE HEAD FOR ALL LAYERS

 HEAD WILL BE SAVED ON UNIT   51 AT END OF TIME STEP    1, STRESS PERIOD   10
1
  VOLUMETRIC BUDGET FOR ENTIRE MODEL AT END OF TIME STEP    1, STRESS PERIOD  10
  ------------------------------------------------------------------------------

     CUMULATIVE VOLUMES      L**3       RATES FOR THIS TIME STEP      L**3/T
     ------------------                 ------------------------

           IN:                                      IN:
           ---                                      ---
             STORAGE =           0.3084               STORAGE =           0.0000
       CONSTANT HEAD =           0.0000         CONSTANT HEAD =           0.0000
       RIVER LEAKAGE =           0.0000         RIVER LEAKAGE =           0.0000
            RECHARGE =         234.1453              RECHARGE =          17.5517

            TOTAL IN =         234.4537              TOTAL IN =          17.5517

          OUT:                                     OUT:
          ----                                     ----
             STORAGE =         147.4348               STORAGE =           8.2340
       CONSTANT HEAD =          32.6047         CONSTANT HEAD =           3.2678
       RIVER LEAKAGE =          54.4145         RIVER LEAKAGE =           6.0501
            RECHARGE =           0.0000              RECHARGE =           0.0000

           TOTAL OUT =         234.4540             TOTAL OUT =          17.5519

            IN - OUT =      -3.8147E-04              IN - OUT =      -1.6022E-04

 PERCENT DISCREPANCY =          -0.00     PERCENT DISCREPANCY =          -0.00






         TIME SUMMARY AT END OF TIME STEP    1 IN STRESS PERIOD   10
                    SECONDS     MINUTES      HOURS       DAYS        YEARS
                    -----------------------------------------------------------
   TIME STEP LENGTH  86400.      1440.0      24.000      1.0000     2.73785E-03
 STRESS PERIOD TIME  86400.      1440.0      24.000      1.0000     2.73785E-03
         TOTAL TIME 8.64000E+05  14400.      240.00      10.000     2.73785E-02
1
1
                            STRESS PERIOD NO.   11, LENGTH =   1.000000    
                            -----------------------------------------------

                              NUMBER OF TIME STEPS =     1

                               MULTIPLIER FOR DELT =     1.000

                            INITIAL TIME STEP SIZE =   1.000000    

 REUSING NON-PARAMETER RIVER REACHES FROM LAST STRESS PERIOD

      2 RIVER REACHES

                 RECHARGE =  1.615517E-03
 
 SOLVING FOR HEAD 

 OUTPUT CONTROL FOR STRESS PERIOD   11   TIME STEP    1
    SAVE HEAD FOR ALL LAYERS

 HEAD WILL BE SAVED ON UNIT   51 AT END OF TIME STEP    1, STRESS PERIOD   11
1
  VOLUMETRIC BUDGET FOR ENTIRE MODEL AT END OF TIME STEP    1, STRESS PERIOD  11
  ------------------------------------------------------------------------------

     CUMULATIVE VOLUMES      L**3       RATES FOR THIS TIME STEP      L**3/T
     ------------------                 ------------------------

           IN:                                      IN:
           ---                                      ---
             STORAGE =           0.3266               STORAGE =       1.8191E-02
       CONSTANT HEAD =           0.0000         CONSTANT HEAD =           0.0000
       RIVER LEAKAGE =           0.0000         RIVER LEAKAGE =           0.0000
            RECHARGE =         250.3005              RECHARGE =          16.1552

            TOTAL IN =         250.6270              TOTAL IN =          16.1734

          OUT:                                     OUT:
          ----                                     ----
             STORAGE =         154.3165               STORAGE =           6.8816
       CONSTANT HEAD =          35.8740         CONSTANT HEAD =           3.2693
       RIVER LEAKAGE =          60.4370         RIVER LEAKAGE =           6.0225
            RECHARGE =           0.0000              RECHARGE =           0.0000

           TOTAL OUT =         250.6275             TOTAL OUT =          16.1734

            IN - OUT =      -4.7302E-04              IN - OUT =      -7.8201E-05

 PERCENT DISCREPANCY =          -0.00     PERCENT DISCREPANCY =          -0.00






         TIME SUMMARY AT END OF TIME STEP    1 IN STRESS PERIOD   11
                    SECONDS     MINUTES      HOURS       DAYS        YEARS
                    -----------------------------------------------------------
   TIME STEP LENGTH  86400.      1440.0      24.000      1.0000     2.73785E-03
 STRESS PERIOD TIME  86400.      1440.0      24.000      1.0000     2.73785E-03
         TOTAL TIME 9.50400E+05  15840.      264.00      11.000     3.01164E-02
1
1
                            STRESS PERIOD NO.   12, LENGTH =   1.000000    
                            -----------------------------------------------

                              NUMBER OF TIME STEPS =     1

                               MULTIPLIER FOR DELT =     1.000

                            INITIAL TIME STEP SIZE =   1.000000    

 REUSING NON-PARAMETER RIVER REACHES FROM LAST STRESS PERIOD

      2 RIVER REACHES

                 RECHARGE =  1.616810E-03
 
 SOLVING FOR HEAD 

 OUTPUT CONTROL FOR STRESS PERIOD   12   TIME STEP    1
    SAVE HEAD FOR ALL LAYERS

 HEAD WILL BE SAVED ON UNIT   51 AT END OF TIME STEP    1, STRESS PERIOD   12
1
  VOLUMETRIC BUDGET FOR ENTIRE MODEL AT END OF TIME STEP    1, STRESS PERIOD  12
  ------------------------------------------------------------------------------

     CUMULATIVE VOLUMES      L**3       RATES FOR THIS TIME STEP      L**3/T
     ------------------                 ------------------------

           IN:                                      IN:
           ---                                      ---
             STORAGE =           0.3266               STORAGE =           0.0000
       CONSTANT HEAD =           0.0000         CONSTANT HEAD =           0.0000
       RIVER LEAKAGE =           0.0000         RIVER LEAKAGE =           0.0000
            RECHARGE =         266.4686              RECHARGE =          16.1681

            TOTAL IN =         266.7951              TOTAL IN =          16.1681

          OUT:                                     OUT:
          ----                                     ----
             STORAGE =         161.1886               STORAGE =           6.8722
       CONSTANT HEAD =          39.1450         CONSTANT HEAD =           3.2709
       RIVER LEAKAGE =          66.4620         RIVER LEAKAGE =           6.0250
            RECHARGE =           0.0000              RECHARGE =           0.0000

           TOTAL OUT =         266.7956             TOTAL OUT =          16.1682

            IN - OUT =      -4.8828E-04              IN - OUT =      -5.3406E-05

 PERCENT DISCREPANCY =          -0.00     PERCENT DISCREPANCY =          -0.00






         TIME SUMMARY AT END OF TIME STEP    1 IN STRESS PERIOD   12
                    SECONDS     MINUTES      HOURS       DAYS        YEARS
                    -----------------------------------------------------------
   TIME STEP LENGTH  86400.      1440.0      24.000      1.0000     2.73785E-03
 STRESS PERIOD TIME  86400.      1440.0      24.000      1.0000     2.73785E-03
         TOTAL TIME 1.03680E+06  17280.      288.00      12.000     3.28542E-02
1
1
                            STRESS PERIOD NO.   13, LENGTH =   1.000000    
                            -----------------------------------------------

                              NUMBER OF TIME STEPS =     1

                               MULTIPLIER FOR DELT =     1.000

                            INITIAL TIME STEP SIZE =   1.000000    

 REUSING NON-PARAMETER RIVER REACHES FROM LAST STRESS PERIOD

      2 RIVER REACHES

                 RECHARGE =  1.361207E-03
 
 SOLVING FOR HEAD 

 OUTPUT CONTROL FOR STRESS PERIOD   13   TIME STEP    1
    SAVE HEAD FOR ALL LAYERS

 HEAD WILL BE SAVED ON UNIT   51 AT END OF TIME STEP    1, STRESS PERIOD   13
1
  VOLUMETRIC BUDGET FOR ENTIRE MODEL AT END OF TIME STEP    1, STRESS PERIOD  13
  ------------------------------------------------------------------------------

     CUMULATIVE VOLUMES      L**3       RATES FOR THIS TIME STEP      L**3/T
     ------------------                 ------------------------

           IN:                                      IN:
           ---                                      ---
             STORAGE =           0.4628               STORAGE =           0.1362
       CONSTANT HEAD =           0.0000         CONSTANT HEAD =           0.0000
       RIVER LEAKAGE =           0.0000         RIVER LEAKAGE =           0.0000
            RECHARGE =         280.0806              RECHARGE =          13.6121

            TOTAL IN =         280.5434              TOTAL IN =          13.7483

          OUT:                                     OUT:
          ----                                     ----
             STORAGE =         165.7133               STORAGE =           4.5247
       CONSTANT HEAD =          42.4174         CONSTANT HEAD =           3.2724
       RIVER LEAKAGE =          72.4134         RIVER LEAKAGE =           5.9514
            RECHARGE =           0.0000              RECHARGE =           0.0000

           TOTAL OUT =         280.5441             TOTAL OUT =          13.7485

            IN - OUT =      -7.3242E-04              IN - OUT =      -2.0695E-04

 PERCENT DISCREPANCY =          -0.00     PERCENT DISCREPANCY =          -0.00






         TIME SUMMARY AT END OF TIME STEP    1 IN STRESS PERIOD   13
                    SECONDS     MINUTES      HOURS       DAYS        YEARS
                    -----------------------------------------------------------
   TIME STEP LENGTH  86400.      1440.0      24.000      1.0000     2.73785E-03
 STRESS PERIOD TIME  86400.      1440.0      24.000      1.0000     2.73785E-03
         TOTAL TIME 1.12320E+06  18720.      312.00      13.000     3.55921E-02
1
1
                            STRESS PERIOD NO.   14, LENGTH =   1.000000    
                            -----------------------------------------------

                              NUMBER OF TIME STEPS =     1

                               MULTIPLIER FOR DELT =     1.000

                            INITIAL TIME STEP SIZE =   1.000000    

 REUSING NON-PARAMETER RIVER REACHES FROM LAST STRESS PERIOD

      2 RIVER REACHES

                 RECHARGE =  1.643103E-03
 
 SOLVING FOR HEAD 

 OUTPUT CONTROL FOR STRESS PERIOD   14   TIME STEP    1
    SAVE HEAD FOR ALL LAYERS

 HEAD WILL BE SAVED ON UNIT   51 AT END OF TIME STEP    1, STRESS PERIOD   14
1
  VOLUMETRIC BUDGET FOR ENTIRE MODEL AT END OF TIME STEP    1, STRESS PERIOD  14
  ------------------------------------------------------------------------------

     CUMULATIVE VOLUMES      L**3       RATES FOR THIS TIME STEP      L**3/T
     ------------------                 ------------------------

           IN:                                      IN:
           ---                                      ---
             STORAGE =           0.4628               STORAGE =           0.0000
       CONSTANT HEAD =           0.0000         CONSTANT HEAD =           0.0000
       RIVER LEAKAGE =           0.0000         RIVER LEAKAGE =           0.0000
            RECHARGE =         296.5117              RECHARGE =          16.4310

            TOTAL IN =         296.9744              TOTAL IN =          16.4310

          OUT:                                     OUT:
          ----                                     ----
             STORAGE =         172.8519               STORAGE =           7.1386
       CONSTANT HEAD =          45.6914         CONSTANT HEAD =           3.2740
       RIVER LEAKAGE =          78.4317         RIVER LEAKAGE =           6.0183
            RECHARGE =           0.0000              RECHARGE =           0.0000

           TOTAL OUT =         296.9750             TOTAL OUT =          16.4309

            IN - OUT =      -5.4932E-04              IN - OUT =       1.7548E-04

 PERCENT DISCREPANCY =          -0.00     PERCENT DISCREPANCY =           0.00






         TIME SUMMARY AT END OF TIME STEP    1 IN STRESS PERIOD   14
                    SECONDS     MINUTES      HOURS       DAYS        YEARS
                    -----------------------------------------------------------
   TIME STEP LENGTH  86400.      1440.0      24.000      1.0000     2.73785E-03
 STRESS PERIOD TIME  86400.      1440.0      24.000      1.0000     2.73785E-03
         TOTAL TIME 1.20960E+06  20160.      336.00      14.000     3.83299E-02
1
1
                            STRESS PERIOD NO.   15, LENGTH =   1.000000    
                            -----------------------------------------------

                              NUMBER OF TIME STEPS =     1

                               MULTIPLIER FOR DELT =     1.000

                            INITIAL TIME STEP SIZE =   1.000000    

 REUSING NON-PARAMETER RIVER REACHES FROM LAST STRESS PERIOD

      2 RIVER REACHES

                 RECHARGE =  1.444828E-03
 
 SOLVING FOR HEAD 

 OUTPUT CONTROL FOR STRESS PERIOD   15   TIME STEP    1
    SAVE HEAD FOR ALL LAYERS

 HEAD WILL BE SAVED ON UNIT   51 AT END OF TIME STEP    1, STRESS PERIOD   15
1
  VOLUMETRIC BUDGET FOR ENTIRE MODEL AT END OF TIME STEP    1, STRESS PERIOD  15
  ------------------------------------------------------------------------------

     CUMULATIVE VOLUMES      L**3       RATES FOR THIS TIME STEP      L**3/T
     ------------------                 ------------------------

           IN:                                      IN:
           ---                                      ---
             STORAGE =           0.4757               STORAGE =       1.2898E-02
       CONSTANT HEAD =           0.0000         CONSTANT HEAD =           0.0000
       RIVER LEAKAGE =           0.0000         RIVER LEAKAGE =           0.0000
            RECHARGE =         310.9599              RECHARGE =          14.4483

            TOTAL IN =         311.4356              TOTAL IN =          14.4612

          OUT:                                     OUT:
          ----                                     ----
             STORAGE =         178.0415               STORAGE =           5.1896
       CONSTANT HEAD =          48.9669         CONSTANT HEAD =           3.2755
       RIVER LEAKAGE =          84.4276         RIVER LEAKAGE =           5.9959
            RECHARGE =           0.0000              RECHARGE =           0.0000

           TOTAL OUT =         311.4360             TOTAL OUT =          14.4610

            IN - OUT =      -3.9673E-04              IN - OUT =       1.3828E-04

 PERCENT DISCREPANCY =          -0.00     PERCENT DISCREPANCY =           0.00






         TIME SUMMARY AT END OF TIME STEP    1 IN STRESS PERIOD   15
                    SECONDS     MINUTES      HOURS       DAYS        YEARS
                    -----------------------------------------------------------
   TIME STEP LENGTH  86400.      1440.0      24.000      1.0000     2.73785E-03
 STRESS PERIOD TIME  86400.      1440.0      24.000      1.0000     2.73785E-03
         TOTAL TIME 1.29600E+06  21600.      360.00      15.000     4.10678E-02
1
1
                            STRESS PERIOD NO.   16, LENGTH =   1.000000    
                            -----------------------------------------------

                              NUMBER OF TIME STEPS =     1

                               MULTIPLIER FOR DELT =     1.000

                            INITIAL TIME STEP SIZE =   1.000000    

 REUSING NON-PARAMETER RIVER REACHES FROM LAST STRESS PERIOD

      2 RIVER REACHES

                 RECHARGE =  2.337500E-03
 
 SOLVING FOR HEAD 

 OUTPUT CONTROL FOR STRESS PERIOD   16   TIME STEP    1
    SAVE HEAD FOR ALL LAYERS

 HEAD WILL BE SAVED ON UNIT   51 AT END OF TIME STEP    1, STRESS PERIOD   16
1
  VOLUMETRIC BUDGET FOR ENTIRE MODEL AT END OF TIME STEP    1, STRESS PERIOD  16
  ------------------------------------------------------------------------------

     CUMULATIVE VOLUMES      L**3       RATES FOR THIS TIME STEP      L**3/T
     ------------------                 ------------------------

           IN:                                      IN:
           ---                                      ---
             STORAGE =           0.4757               STORAGE =           0.0000
       CONSTANT HEAD =           0.0000         CONSTANT HEAD =           0.0000
       RIVER LEAKAGE =           0.0000         RIVER LEAKAGE =           0.0000
            RECHARGE =         334.3349              RECHARGE =          23.3750

            TOTAL IN =         334.8106              TOTAL IN =          23.3750

          OUT:                                     OUT:
          ----                                     ----
             STORAGE =         191.8294               STORAGE =          13.7879
       CONSTANT HEAD =          52.2443         CONSTANT HEAD =           3.2774
       RIVER LEAKAGE =          90.7374         RIVER LEAKAGE =           6.3098
            RECHARGE =           0.0000              RECHARGE =           0.0000

           TOTAL OUT =         334.8111             TOTAL OUT =          23.3751

            IN - OUT =      -4.8828E-04              IN - OUT =      -6.4850E-05

 PERCENT DISCREPANCY =          -0.00     PERCENT DISCREPANCY =          -0.00






         TIME SUMMARY AT END OF TIME STEP    1 IN STRESS PERIOD   16
                    SECONDS     MINUTES      HOURS       DAYS        YEARS
                    -----------------------------------------------------------
   TIME STEP LENGTH  86400.      1440.0      24.000      1.0000     2.73785E-03
 STRESS PERIOD TIME  86400.      1440.0      24.000      1.0000     2.73785E-03
         TOTAL TIME 1.38240E+06  23040.      384.00      16.000     4.38056E-02
1
1
                            STRESS PERIOD NO.   17, LENGTH =   1.000000    
                            -----------------------------------------------

                              NUMBER OF TIME STEPS =     1

                               MULTIPLIER FOR DELT =     1.000

                            INITIAL TIME STEP SIZE =   1.000000    

 REUSING NON-PARAMETER RIVER REACHES FROM LAST STRESS PERIOD

      2 RIVER REACHES

                 RECHARGE =  1.406034E-03
 
 SOLVING FOR HEAD 

 OUTPUT CONTROL FOR STRESS PERIOD   17   TIME STEP    1
    SAVE HEAD FOR ALL LAYERS

 HEAD WILL BE SAVED ON UNIT   51 AT END OF TIME STEP    1, STRESS PERIOD   17
1
  VOLUMETRIC BUDGET FOR ENTIRE MODEL AT END OF TIME STEP    1, STRESS PERIOD  17
  ------------------------------------------------------------------------------

     CUMULATIVE VOLUMES      L**3       RATES FOR THIS TIME STEP      L**3/T
     ------------------                 ------------------------

           IN:                                      IN:
           ---                                      ---
             STORAGE =           0.6038               STORAGE =           0.1281
       CONSTANT HEAD =           0.0000         CONSTANT HEAD =           0.0000
       RIVER LEAKAGE =           0.0000         RIVER LEAKAGE =           0.0000
            RECHARGE =         348.3953              RECHARGE =          14.0603

            TOTAL IN =         348.9991              TOTAL IN =          14.1885

          OUT:                                     OUT:
          ----                                     ----
             STORAGE =         196.5516               STORAGE =           4.7222
       CONSTANT HEAD =          55.5233         CONSTANT HEAD =           3.2790
       RIVER LEAKAGE =          96.9248         RIVER LEAKAGE =           6.1874
            RECHARGE =           0.0000              RECHARGE =           0.0000

           TOTAL OUT =         348.9997             TOTAL OUT =          14.1886

            IN - OUT =      -6.4087E-04              IN - OUT =      -1.7834E-04

 PERCENT DISCREPANCY =          -0.00     PERCENT DISCREPANCY =          -0.00






         TIME SUMMARY AT END OF TIME STEP    1 IN STRESS PERIOD   17
                    SECONDS     MINUTES      HOURS       DAYS        YEARS
                    -----------------------------------------------------------
   TIME STEP LENGTH  86400.      1440.0      24.000      1.0000     2.73785E-03
 STRESS PERIOD TIME  86400.      1440.0      24.000      1.0000     2.73785E-03
         TOTAL TIME 1.46880E+06  24480.      408.00      17.000     4.65435E-02
1
1
                            STRESS PERIOD NO.   18, LENGTH =   1.000000    
                            -----------------------------------------------

                              NUMBER OF TIME STEPS =     1

                               MULTIPLIER FOR DELT =     1.000

                            INITIAL TIME STEP SIZE =   1.000000    

 REUSING NON-PARAMETER RIVER REACHES FROM LAST STRESS PERIOD

      2 RIVER REACHES

                 RECHARGE =  1.556897E-03
 
 SOLVING FOR HEAD 

 OUTPUT CONTROL FOR STRESS PERIOD   18   TIME STEP    1
    SAVE HEAD FOR ALL LAYERS

 HEAD WILL BE SAVED ON UNIT   51 AT END OF TIME STEP    1, STRESS PERIOD   18
1
  VOLUMETRIC BUDGET FOR ENTIRE MODEL AT END OF TIME STEP    1, STRESS PERIOD  18
  ------------------------------------------------------------------------------

     CUMULATIVE VOLUMES      L**3       RATES FOR THIS TIME STEP      L**3/T
     ------------------                 ------------------------

           IN:                                      IN:
           ---                                      ---
             STORAGE =           0.6038               STORAGE =           0.0000
       CONSTANT HEAD =           0.0000         CONSTANT HEAD =           0.0000
       RIVER LEAKAGE =           0.0000         RIVER LEAKAGE =           0.0000
            RECHARGE =         363.9642              RECHARGE =          15.5690

            TOTAL IN =         364.5680              TOTAL IN =          15.5690

          OUT:                                     OUT:
          ----                                     ----
             STORAGE =         202.6379               STORAGE =           6.0863
       CONSTANT HEAD =          58.8040         CONSTANT HEAD =           3.2807
       RIVER LEAKAGE =         103.1266         RIVER LEAKAGE =           6.2018
            RECHARGE =           0.0000              RECHARGE =           0.0000

           TOTAL OUT =         364.5685             TOTAL OUT =          15.5687

            IN - OUT =      -4.2725E-04              IN - OUT =       2.4319E-04

 PERCENT DISCREPANCY =          -0.00     PERCENT DISCREPANCY =           0.00






         TIME SUMMARY AT END OF TIME STEP    1 IN STRESS PERIOD   18
                    SECONDS     MINUTES      HOURS       DAYS        YEARS
                    -----------------------------------------------------------
   TIME STEP LENGTH  86400.      1440.0      24.000      1.0000     2.73785E-03
 STRESS PERIOD TIME  86400.      1440.0      24.000      1.0000     2.73785E-03
         TOTAL TIME 1.55520E+06  25920.      432.00      18.000     4.92813E-02
1
1
                            STRESS PERIOD NO.   19, LENGTH =   1.000000    
                            -----------------------------------------------

                              NUMBER OF TIME STEPS =     1

                               MULTIPLIER FOR DELT =     1.000

                            INITIAL TIME STEP SIZE =   1.000000    

 REUSING NON-PARAMETER RIVER REACHES FROM LAST STRESS PERIOD

      2 RIVER REACHES

                 RECHARGE =  1.181466E-03
 
 SOLVING FOR HEAD 

 OUTPUT CONTROL FOR STRESS PERIOD   19   TIME STEP    1
    SAVE HEAD FOR ALL LAYERS

 HEAD WILL BE SAVED ON UNIT   51 AT END OF TIME STEP    1, STRESS PERIOD   19
1
  VOLUMETRIC BUDGET FOR ENTIRE MODEL AT END OF TIME STEP    1, STRESS PERIOD  19
  ------------------------------------------------------------------------------

     CUMULATIVE VOLUMES      L**3       RATES FOR THIS TIME STEP      L**3/T
     ------------------                 ------------------------

           IN:                                      IN:
           ---                                      ---
             STORAGE =           0.9433               STORAGE =           0.3395
       CONSTANT HEAD =           0.0000         CONSTANT HEAD =           0.0000
       RIVER LEAKAGE =           0.0000         RIVER LEAKAGE =           0.0000
            RECHARGE =         375.7789              RECHARGE =          11.8147

            TOTAL IN =         376.7222              TOTAL IN =          12.1542

          OUT:                                     OUT:
          ----                                     ----
             STORAGE =         205.4201               STORAGE =           2.7823
       CONSTANT HEAD =          62.0862         CONSTANT HEAD =           3.2822
       RIVER LEAKAGE =         109.2161         RIVER LEAKAGE =           6.0896
            RECHARGE =           0.0000              RECHARGE =           0.0000

           TOTAL OUT =         376.7225             TOTAL OUT =          12.1541

            IN - OUT =      -3.3569E-04              IN - OUT =       7.0572E-05

 PERCENT DISCREPANCY =          -0.00     PERCENT DISCREPANCY =           0.00






         TIME SUMMARY AT END OF TIME STEP    1 IN STRESS PERIOD   19
                    SECONDS     MINUTES      HOURS       DAYS        YEARS
                    -----------------------------------------------------------
   TIME STEP LENGTH  86400.      1440.0      24.000      1.0000     2.73785E-03
 STRESS PERIOD TIME  86400.      1440.0      24.000      1.0000     2.73785E-03
         TOTAL TIME 1.64160E+06  27360.      456.00      19.000     5.20192E-02
1
1
                            STRESS PERIOD NO.   20, LENGTH =   1.000000    
                            -----------------------------------------------

                              NUMBER OF TIME STEPS =     1

                               MULTIPLIER FOR DELT =     1.000

                            INITIAL TIME STEP SIZE =   1.000000    

 REUSING NON-PARAMETER RIVER REACHES FROM LAST STRESS PERIOD

      2 RIVER REACHES

                 RECHARGE =  1.701293E-03
 
 SOLVING FOR HEAD 

 OUTPUT CONTROL FOR STRESS PERIOD   20   TIME STEP    1
    SAVE HEAD FOR ALL LAYERS

 HEAD WILL BE SAVED ON UNIT   51 AT END OF TIME STEP    1, STRESS PERIOD   20
1
  VOLUMETRIC BUDGET FOR ENTIRE MODEL AT END OF TIME STEP    1, STRESS PERIOD  20
  ------------------------------------------------------------------------------

     CUMULATIVE VOLUMES      L**3       RATES FOR THIS TIME STEP      L**3/T
     ------------------                 ------------------------

           IN:                                      IN:
           ---                                      ---
             STORAGE =           0.9433               STORAGE =           0.0000
       CONSTANT HEAD =           0.0000         CONSTANT HEAD =           0.0000
       RIVER LEAKAGE =           0.0000         RIVER LEAKAGE =           0.0000
            RECHARGE =         392.7918              RECHARGE =          17.0129

            TOTAL IN =         393.7351              TOTAL IN =          17.0129

          OUT:                                     OUT:
          ----                                     ----
             STORAGE =         212.9353               STORAGE =           7.5151
       CONSTANT HEAD =          65.3702         CONSTANT HEAD =           3.2839
       RIVER LEAKAGE =         115.4302         RIVER LEAKAGE =           6.2140
            RECHARGE =           0.0000              RECHARGE =           0.0000

           TOTAL OUT =         393.7356             TOTAL OUT =          17.0131

            IN - OUT =      -4.2725E-04              IN - OUT =      -1.3733E-04

 PERCENT DISCREPANCY =          -0.00     PERCENT DISCREPANCY =          -0.00






         TIME SUMMARY AT END OF TIME STEP    1 IN STRESS PERIOD   20
                    SECONDS     MINUTES      HOURS       DAYS        YEARS
                    -----------------------------------------------------------
   TIME STEP LENGTH  86400.      1440.0      24.000      1.0000     2.73785E-03
 STRESS PERIOD TIME  86400.      1440.0      24.000      1.0000     2.73785E-03
         TOTAL TIME 1.72800E+06  28800.      480.00      20.000     5.47570E-02
1
1
                            STRESS PERIOD NO.   21, LENGTH =   1.000000    
                            -----------------------------------------------

                              NUMBER OF TIME STEPS =     1

                               MULTIPLIER FOR DELT =     1.000

                            INITIAL TIME STEP SIZE =   1.000000    

 REUSING NON-PARAMETER RIVER REACHES FROM LAST STRESS PERIOD

      2 RIVER REACHES

                 RECHARGE =  2.296983E-03
 
 SOLVING FOR HEAD 

 OUTPUT CONTROL FOR STRESS PERIOD   21   TIME STEP    1
    SAVE HEAD FOR ALL LAYERS

 HEAD WILL BE SAVED ON UNIT   51 AT END OF TIME STEP    1, STRESS PERIOD   21
1
  VOLUMETRIC BUDGET FOR ENTIRE MODEL AT END OF TIME STEP    1, STRESS PERIOD  21
  ------------------------------------------------------------------------------

     CUMULATIVE VOLUMES      L**3       RATES FOR THIS TIME STEP      L**3/T
     ------------------                 ------------------------

           IN:                                      IN:
           ---                                      ---
             STORAGE =           0.9433               STORAGE =           0.0000
       CONSTANT HEAD =           0.0000         CONSTANT HEAD =           0.0000
       RIVER LEAKAGE =           0.0000         RIVER LEAKAGE =           0.0000
            RECHARGE =         415.7617              RECHARGE =          22.9698

            TOTAL IN =         416.7050              TOTAL IN =          22.9698

          OUT:                                     OUT:
          ----                                     ----
             STORAGE =         226.1183               STORAGE =          13.1830
       CONSTANT HEAD =          68.6560         CONSTANT HEAD =           3.2859
       RIVER LEAKAGE =         121.9310         RIVER LEAKAGE =           6.5008
            RECHARGE =           0.0000              RECHARGE =           0.0000

           TOTAL OUT =         416.7053             TOTAL OUT =          22.9697

            IN - OUT =      -3.6621E-04              IN - OUT =       8.5831E-05

 PERCENT DISCREPANCY =          -0.00     PERCENT DISCREPANCY =           0.00






         TIME SUMMARY AT END OF TIME STEP    1 IN STRESS PERIOD   21
                    SECONDS     MINUTES      HOURS       DAYS        YEARS
                    -----------------------------------------------------------
   TIME STEP LENGTH  86400.      1440.0      24.000      1.0000     2.73785E-03
 STRESS PERIOD TIME  86400.      1440.0      24.000      1.0000     2.73785E-03
         TOTAL TIME 1.81440E+06  30240.      504.00      21.000     5.74949E-02
1
1
                            STRESS PERIOD NO.   22, LENGTH =   1.000000    
                            -----------------------------------------------

                              NUMBER OF TIME STEPS =     1

                               MULTIPLIER FOR DELT =     1.000

                            INITIAL TIME STEP SIZE =   1.000000    

 REUSING NON-PARAMETER RIVER REACHES FROM LAST STRESS PERIOD

      2 RIVER REACHES

                 RECHARGE =  1.523276E-03
 
 SOLVING FOR HEAD 

 OUTPUT CONTROL FOR STRESS PERIOD   22   TIME STEP    1
    SAVE HEAD FOR ALL LAYERS

 HEAD WILL BE SAVED ON UNIT   51 AT END OF TIME STEP    1, STRESS PERIOD   22
1
  VOLUMETRIC BUDGET FOR ENTIRE MODEL AT END OF TIME STEP    1, STRESS PERIOD  22
  ------------------------------------------------------------------------------

     CUMULATIVE VOLUMES      L**3       RATES FOR THIS TIME STEP      L**3/T
     ------------------                 ------------------------

           IN:                                      IN:
           ---                                      ---
             STORAGE =           0.9875               STORAGE =       4.4166E-02
       CONSTANT HEAD =           0.0000         CONSTANT HEAD =           0.0000
       RIVER LEAKAGE =           0.0000         RIVER LEAKAGE =           0.0000
            RECHARGE =         430.9944              RECHARGE =          15.2328

            TOTAL IN =         431.9819              TOTAL IN =          15.2769

          OUT:                                     OUT:
          ----                                     ----
             STORAGE =         231.6841               STORAGE =           5.5658
       CONSTANT HEAD =          71.9437         CONSTANT HEAD =           3.2877
       RIVER LEAKAGE =         128.3543         RIVER LEAKAGE =           6.4233
            RECHARGE =           0.0000              RECHARGE =           0.0000

           TOTAL OUT =         431.9821             TOTAL OUT =          15.2768

            IN - OUT =      -2.4414E-04              IN - OUT =       1.7262E-04

 PERCENT DISCREPANCY =          -0.00     PERCENT DISCREPANCY =           0.00






         TIME SUMMARY AT END OF TIME STEP    1 IN STRESS PERIOD   22
                    SECONDS     MINUTES      HOURS       DAYS        YEARS
                    -----------------------------------------------------------
   TIME STEP LENGTH  86400.      1440.0      24.000      1.0000     2.73785E-03
 STRESS PERIOD TIME  86400.      1440.0      24.000      1.0000     2.73785E-03
         TOTAL TIME 1.90080E+06  31680.      528.00      22.000     6.02327E-02
1
1
                            STRESS PERIOD NO.   23, LENGTH =   1.000000    
                            -----------------------------------------------

                              NUMBER OF TIME STEPS =     1

                               MULTIPLIER FOR DELT =     1.000

                            INITIAL TIME STEP SIZE =   1.000000    

 REUSING NON-PARAMETER RIVER REACHES FROM LAST STRESS PERIOD

      2 RIVER REACHES

                 RECHARGE =  1.487069E-03
 
 SOLVING FOR HEAD 

 OUTPUT CONTROL FOR STRESS PERIOD   23   TIME STEP    1
    SAVE HEAD FOR ALL LAYERS

 HEAD WILL BE SAVED ON UNIT   51 AT END OF TIME STEP    1, STRESS PERIOD   23
1
  VOLUMETRIC BUDGET FOR ENTIRE MODEL AT END OF TIME STEP    1, STRESS PERIOD  23
  ------------------------------------------------------------------------------

     CUMULATIVE VOLUMES      L**3       RATES FOR THIS TIME STEP      L**3/T
     ------------------                 ------------------------

           IN:                                      IN:
           ---                                      ---
             STORAGE =           1.0037               STORAGE =       1.6229E-02
       CONSTANT HEAD =           0.0000         CONSTANT HEAD =           0.0000
       RIVER LEAKAGE =           0.0000         RIVER LEAKAGE =           0.0000
            RECHARGE =         445.8651              RECHARGE =          14.8707

            TOTAL IN =         446.8688              TOTAL IN =          14.8869

          OUT:                                     OUT:
          ----                                     ----
             STORAGE =         236.8822               STORAGE =           5.1981
       CONSTANT HEAD =          75.2332         CONSTANT HEAD =           3.2895
       RIVER LEAKAGE =         134.7536         RIVER LEAKAGE =           6.3994
            RECHARGE =           0.0000              RECHARGE =           0.0000

           TOTAL OUT =         446.8690             TOTAL OUT =          14.8869

            IN - OUT =      -1.5259E-04              IN - OUT =       3.2425E-05

 PERCENT DISCREPANCY =          -0.00     PERCENT DISCREPANCY =           0.00






         TIME SUMMARY AT END OF TIME STEP    1 IN STRESS PERIOD   23
                    SECONDS     MINUTES      HOURS       DAYS        YEARS
                    -----------------------------------------------------------
   TIME STEP LENGTH  86400.      1440.0      24.000      1.0000     2.73785E-03
 STRESS PERIOD TIME  86400.      1440.0      24.000      1.0000     2.73785E-03
         TOTAL TIME 1.98720E+06  33120.      552.00      23.000     6.29706E-02
1
1
                            STRESS PERIOD NO.   24, LENGTH =   1.000000    
                            -----------------------------------------------

                              NUMBER OF TIME STEPS =     1

                               MULTIPLIER FOR DELT =     1.000

                            INITIAL TIME STEP SIZE =   1.000000    

 REUSING NON-PARAMETER RIVER REACHES FROM LAST STRESS PERIOD

      2 RIVER REACHES

                 RECHARGE =  2.252586E-03
 
 SOLVING FOR HEAD 

 OUTPUT CONTROL FOR STRESS PERIOD   24   TIME STEP    1
    SAVE HEAD FOR ALL LAYERS

 HEAD WILL BE SAVED ON UNIT   51 AT END OF TIME STEP    1, STRESS PERIOD   24
1
  VOLUMETRIC BUDGET FOR ENTIRE MODEL AT END OF TIME STEP    1, STRESS PERIOD  24
  ------------------------------------------------------------------------------

     CUMULATIVE VOLUMES      L**3       RATES FOR THIS TIME STEP      L**3/T
     ------------------                 ------------------------

           IN:                                      IN:
           ---                                      ---
             STORAGE =           1.0037               STORAGE =           0.0000
       CONSTANT HEAD =           0.0000         CONSTANT HEAD =           0.0000
       RIVER LEAKAGE =           0.0000         RIVER LEAKAGE =           0.0000
            RECHARGE =         468.3910              RECHARGE =          22.5259

            TOTAL IN =         469.3947              TOTAL IN =          22.5259

          OUT:                                     OUT:
          ----                                     ----
             STORAGE =         249.4483               STORAGE =          12.5661
       CONSTANT HEAD =          78.5247         CONSTANT HEAD =           3.2915
       RIVER LEAKAGE =         141.4218         RIVER LEAKAGE =           6.6682
            RECHARGE =           0.0000              RECHARGE =           0.0000

           TOTAL OUT =         469.3948             TOTAL OUT =          22.5258

            IN - OUT =      -1.2207E-04              IN - OUT =       6.1035E-05

 PERCENT DISCREPANCY =          -0.00     PERCENT DISCREPANCY =           0.00






         TIME SUMMARY AT END OF TIME STEP    1 IN STRESS PERIOD   24
                    SECONDS     MINUTES      HOURS       DAYS        YEARS
                    -----------------------------------------------------------
   TIME STEP LENGTH  86400.      1440.0      24.000      1.0000     2.73785E-03
 STRESS PERIOD TIME  86400.      1440.0      24.000      1.0000     2.73785E-03
         TOTAL TIME 2.07360E+06  34560.      576.00      24.000     6.57084E-02
1
1
                            STRESS PERIOD NO.   25, LENGTH =   1.000000    
                            -----------------------------------------------

                              NUMBER OF TIME STEPS =     1

                               MULTIPLIER FOR DELT =     1.000

                            INITIAL TIME STEP SIZE =   1.000000    

 REUSING NON-PARAMETER RIVER REACHES FROM LAST STRESS PERIOD

      2 RIVER REACHES

                 RECHARGE =  2.529310E-03
 
 SOLVING FOR HEAD 

 OUTPUT CONTROL FOR STRESS PERIOD   25   TIME STEP    1
    SAVE HEAD FOR ALL LAYERS

 HEAD WILL BE SAVED ON UNIT   51 AT END OF TIME STEP    1, STRESS PERIOD   25
1
  VOLUMETRIC BUDGET FOR ENTIRE MODEL AT END OF TIME STEP    1, STRESS PERIOD  25
  ------------------------------------------------------------------------------

     CUMULATIVE VOLUMES      L**3       RATES FOR THIS TIME STEP      L**3/T
     ------------------                 ------------------------

           IN:                                      IN:
           ---                                      ---
             STORAGE =           1.0037               STORAGE =           0.0000
       CONSTANT HEAD =           0.0000         CONSTANT HEAD =           0.0000
       RIVER LEAKAGE =           0.0000         RIVER LEAKAGE =           0.0000
            RECHARGE =         493.6841              RECHARGE =          25.2931

            TOTAL IN =         494.6877              TOTAL IN =          25.2931

          OUT:                                     OUT:
          ----                                     ----
             STORAGE =         264.5039               STORAGE =          15.0556
       CONSTANT HEAD =          81.8184         CONSTANT HEAD =           3.2938
       RIVER LEAKAGE =         148.3654         RIVER LEAKAGE =           6.9436
            RECHARGE =           0.0000              RECHARGE =           0.0000

           TOTAL OUT =         494.6877             TOTAL OUT =          25.2929

            IN - OUT =       6.1035E-05              IN - OUT =       1.9646E-04

 PERCENT DISCREPANCY =           0.00     PERCENT DISCREPANCY =           0.00






         TIME SUMMARY AT END OF TIME STEP    1 IN STRESS PERIOD   25
                    SECONDS     MINUTES      HOURS       DAYS        YEARS
                    -----------------------------------------------------------
   TIME STEP LENGTH  86400.      1440.0      24.000      1.0000     2.73785E-03
 STRESS PERIOD TIME  86400.      1440.0      24.000      1.0000     2.73785E-03
         TOTAL TIME 2.16000E+06  36000.      600.00      25.000     6.84463E-02
1
1
                            STRESS PERIOD NO.   26, LENGTH =   1.000000    
                            -----------------------------------------------

                              NUMBER OF TIME STEPS =     1

                               MULTIPLIER FOR DELT =     1.000

                            INITIAL TIME STEP SIZE =   1.000000    

 REUSING NON-PARAMETER RIVER REACHES FROM LAST STRESS PERIOD

      2 RIVER REACHES

                 RECHARGE =  1.556466E-03
 
 SOLVING FOR HEAD 

 OUTPUT CONTROL FOR STRESS PERIOD   26   TIME STEP    1
    SAVE HEAD FOR ALL LAYERS

 HEAD WILL BE SAVED ON UNIT   51 AT END OF TIME STEP    1, STRESS PERIOD   26
1
  VOLUMETRIC BUDGET FOR ENTIRE MODEL AT END OF TIME STEP    1, STRESS PERIOD  26
  ------------------------------------------------------------------------------

     CUMULATIVE VOLUMES      L**3       RATES FOR THIS TIME STEP      L**3/T
     ------------------                 ------------------------

           IN:                                      IN:
           ---                                      ---
             STORAGE =           1.1271               STORAGE =           0.1234
       CONSTANT HEAD =           0.0000         CONSTANT HEAD =           0.0000
       RIVER LEAKAGE =           0.0000         RIVER LEAKAGE =           0.0000
            RECHARGE =         509.2487              RECHARGE =          15.5647

            TOTAL IN =         510.3758              TOTAL IN =          15.6881

          OUT:                                     OUT:
          ----                                     ----
             STORAGE =         270.0882               STORAGE =           5.5844
       CONSTANT HEAD =          85.1142         CONSTANT HEAD =           3.2958
       RIVER LEAKAGE =         155.1730         RIVER LEAKAGE =           6.8077
            RECHARGE =           0.0000              RECHARGE =           0.0000

           TOTAL OUT =         510.3755             TOTAL OUT =          15.6878

            IN - OUT =       3.3569E-04              IN - OUT =       2.4605E-04

 PERCENT DISCREPANCY =           0.00     PERCENT DISCREPANCY =           0.00






         TIME SUMMARY AT END OF TIME STEP    1 IN STRESS PERIOD   26
                    SECONDS     MINUTES      HOURS       DAYS        YEARS
                    -----------------------------------------------------------
   TIME STEP LENGTH  86400.      1440.0      24.000      1.0000     2.73785E-03
 STRESS PERIOD TIME  86400.      1440.0      24.000      1.0000     2.73785E-03
         TOTAL TIME 2.24640E+06  37440.      624.00      26.000     7.11841E-02
1
1
                            STRESS PERIOD NO.   27, LENGTH =   1.000000    
                            -----------------------------------------------

                              NUMBER OF TIME STEPS =     1

                               MULTIPLIER FOR DELT =     1.000

                            INITIAL TIME STEP SIZE =   1.000000    

 REUSING NON-PARAMETER RIVER REACHES FROM LAST STRESS PERIOD

      2 RIVER REACHES

                 RECHARGE =  1.778879E-03
 
 SOLVING FOR HEAD 

 OUTPUT CONTROL FOR STRESS PERIOD   27   TIME STEP    1
    SAVE HEAD FOR ALL LAYERS

 HEAD WILL BE SAVED ON UNIT   51 AT END OF TIME STEP    1, STRESS PERIOD   27
1
  VOLUMETRIC BUDGET FOR ENTIRE MODEL AT END OF TIME STEP    1, STRESS PERIOD  27
  ------------------------------------------------------------------------------

     CUMULATIVE VOLUMES      L**3       RATES FOR THIS TIME STEP      L**3/T
     ------------------                 ------------------------

           IN:                                      IN:
           ---                                      ---
             STORAGE =           1.1271               STORAGE =           0.0000
       CONSTANT HEAD =           0.0000         CONSTANT HEAD =           0.0000
       RIVER LEAKAGE =           0.0000         RIVER LEAKAGE =           0.0000
            RECHARGE =         527.0375              RECHARGE =          17.7888

            TOTAL IN =         528.1647              TOTAL IN =          17.7888

          OUT:                                     OUT:
          ----                                     ----
             STORAGE =         277.7318               STORAGE =           7.6436
       CONSTANT HEAD =          88.4121         CONSTANT HEAD =           3.2979
       RIVER LEAKAGE =         162.0204         RIVER LEAKAGE =           6.8474
            RECHARGE =           0.0000              RECHARGE =           0.0000

           TOTAL OUT =         528.1644             TOTAL OUT =          17.7889

            IN - OUT =       2.4414E-04              IN - OUT =      -9.3460E-05

 PERCENT DISCREPANCY =           0.00     PERCENT DISCREPANCY =          -0.00






         TIME SUMMARY AT END OF TIME STEP    1 IN STRESS PERIOD   27
                    SECONDS     MINUTES      HOURS       DAYS        YEARS
                    -----------------------------------------------------------
   TIME STEP LENGTH  86400.      1440.0      24.000      1.0000     2.73785E-03
 STRESS PERIOD TIME  86400.      1440.0      24.000      1.0000     2.73785E-03
         TOTAL TIME 2.33280E+06  38880.      648.00      27.000     7.39220E-02
1
1
                            STRESS PERIOD NO.   28, LENGTH =   1.000000    
                            -----------------------------------------------

                              NUMBER OF TIME STEPS =     1

                               MULTIPLIER FOR DELT =     1.000

                            INITIAL TIME STEP SIZE =   1.000000    

 REUSING NON-PARAMETER RIVER REACHES FROM LAST STRESS PERIOD

      2 RIVER REACHES

                 RECHARGE =  2.425431E-03
 
 SOLVING FOR HEAD 

 OUTPUT CONTROL FOR STRESS PERIOD   28   TIME STEP    1
    SAVE HEAD FOR ALL LAYERS

 HEAD WILL BE SAVED ON UNIT   51 AT END OF TIME STEP    1, STRESS PERIOD   28
1
  VOLUMETRIC BUDGET FOR ENTIRE MODEL AT END OF TIME STEP    1, STRESS PERIOD  28
  ------------------------------------------------------------------------------

     CUMULATIVE VOLUMES      L**3       RATES FOR THIS TIME STEP      L**3/T
     ------------------                 ------------------------

           IN:                                      IN:
           ---                                      ---
             STORAGE =           1.1271               STORAGE =           0.0000
       CONSTANT HEAD =           0.0000         CONSTANT HEAD =           0.0000
       RIVER LEAKAGE =           0.0000         RIVER LEAKAGE =           0.0000
            RECHARGE =         551.2919              RECHARGE =          24.2543

            TOTAL IN =         552.4190              TOTAL IN =          24.2543

          OUT:                                     OUT:
          ----                                     ----
             STORAGE =         291.5710               STORAGE =          13.8392
       CONSTANT HEAD =          91.7124         CONSTANT HEAD =           3.3002
       RIVER LEAKAGE =         169.1354         RIVER LEAKAGE =           7.1149
            RECHARGE =           0.0000              RECHARGE =           0.0000

           TOTAL OUT =         552.4188             TOTAL OUT =          24.2543

            IN - OUT =       2.4414E-04              IN - OUT =      -3.0518E-05

 PERCENT DISCREPANCY =           0.00     PERCENT DISCREPANCY =          -0.00






         TIME SUMMARY AT END OF TIME STEP    1 IN STRESS PERIOD   28
                    SECONDS     MINUTES      HOURS       DAYS        YEARS
                    -----------------------------------------------------------
   TIME STEP LENGTH  86400.      1440.0      24.000      1.0000     2.73785E-03
 STRESS PERIOD TIME  86400.      1440.0      24.000      1.0000     2.73785E-03
         TOTAL TIME 2.41920E+06  40320.      672.00      28.000     7.66598E-02
1
1
                            STRESS PERIOD NO.   29, LENGTH =   1.000000    
                            -----------------------------------------------

                              NUMBER OF TIME STEPS =     1

                               MULTIPLIER FOR DELT =     1.000

                            INITIAL TIME STEP SIZE =   1.000000    

 REUSING NON-PARAMETER RIVER REACHES FROM LAST STRESS PERIOD

      2 RIVER REACHES

                 RECHARGE =  1.965517E-03
 
 SOLVING FOR HEAD 

 OUTPUT CONTROL FOR STRESS PERIOD   29   TIME STEP    1
    SAVE HEAD FOR ALL LAYERS

 HEAD WILL BE SAVED ON UNIT   51 AT END OF TIME STEP    1, STRESS PERIOD   29
1
  VOLUMETRIC BUDGET FOR ENTIRE MODEL AT END OF TIME STEP    1, STRESS PERIOD  29
  ------------------------------------------------------------------------------

     CUMULATIVE VOLUMES      L**3       RATES FOR THIS TIME STEP      L**3/T
     ------------------                 ------------------------

           IN:                                      IN:
           ---                                      ---
             STORAGE =           1.1271               STORAGE =           0.0000
       CONSTANT HEAD =           0.0000         CONSTANT HEAD =           0.0000
       RIVER LEAKAGE =           0.0000         RIVER LEAKAGE =           0.0000
            RECHARGE =         570.9470              RECHARGE =          19.6552

            TOTAL IN =         572.0742              TOTAL IN =          19.6552

          OUT:                                     OUT:
          ----                                     ----
             STORAGE =         300.7859               STORAGE =           9.2149
       CONSTANT HEAD =          95.0149         CONSTANT HEAD =           3.3025
       RIVER LEAKAGE =         176.2732         RIVER LEAKAGE =           7.1378
            RECHARGE =           0.0000              RECHARGE =           0.0000

           TOTAL OUT =         572.0740             TOTAL OUT =          19.6553

            IN - OUT =       1.8311E-04              IN - OUT =      -8.5831E-05

 PERCENT DISCREPANCY =           0.00     PERCENT DISCREPANCY =          -0.00






         TIME SUMMARY AT END OF TIME STEP    1 IN STRESS PERIOD   29
                    SECONDS     MINUTES      HOURS       DAYS        YEARS
                    -----------------------------------------------------------
   TIME STEP LENGTH  86400.      1440.0      24.000      1.0000     2.73785E-03
 STRESS PERIOD TIME  86400.      1440.0      24.000      1.0000     2.73785E-03
         TOTAL TIME 2.50560E+06  41760.      696.00      29.000     7.93977E-02
1
1
                            STRESS PERIOD NO.   30, LENGTH =   1.000000    
                            -----------------------------------------------

                              NUMBER OF TIME STEPS =     1

                               MULTIPLIER FOR DELT =     1.000

                            INITIAL TIME STEP SIZE =   1.000000    

 REUSING NON-PARAMETER RIVER REACHES FROM LAST STRESS PERIOD

      2 RIVER REACHES

                 RECHARGE =  1.908190E-03
 
 SOLVING FOR HEAD 

 OUTPUT CONTROL FOR STRESS PERIOD   30   TIME STEP    1
    SAVE HEAD FOR ALL LAYERS

 HEAD WILL BE SAVED ON UNIT   51 AT END OF TIME STEP    1, STRESS PERIOD   30
1
  VOLUMETRIC BUDGET FOR ENTIRE MODEL AT END OF TIME STEP    1, STRESS PERIOD  30
  ------------------------------------------------------------------------------

     CUMULATIVE VOLUMES      L**3       RATES FOR THIS TIME STEP      L**3/T
     ------------------                 ------------------------

           IN:                                      IN:
           ---                                      ---
             STORAGE =           1.1271               STORAGE =           0.0000
       CONSTANT HEAD =           0.0000         CONSTANT HEAD =           0.0000
       RIVER LEAKAGE =           0.0000         RIVER LEAKAGE =           0.0000
            RECHARGE =         590.0289              RECHARGE =          19.0819

            TOTAL IN =         591.1561              TOTAL IN =          19.0819

          OUT:                                     OUT:
          ----                                     ----
             STORAGE =         309.3925               STORAGE =           8.6066
       CONSTANT HEAD =          98.3197         CONSTANT HEAD =           3.3048
       RIVER LEAKAGE =         183.4438         RIVER LEAKAGE =           7.1706
            RECHARGE =           0.0000              RECHARGE =           0.0000

           TOTAL OUT =         591.1561             TOTAL OUT =          19.0820

            IN - OUT =           0.0000              IN - OUT =      -1.4687E-04

 PERCENT DISCREPANCY =           0.00     PERCENT DISCREPANCY =          -0.00






         TIME SUMMARY AT END OF TIME STEP    1 IN STRESS PERIOD   30
                    SECONDS     MINUTES      HOURS       DAYS        YEARS
                    -----------------------------------------------------------
   TIME STEP LENGTH  86400.      1440.0      24.000      1.0000     2.73785E-03
 STRESS PERIOD TIME  86400.      1440.0      24.000      1.0000     2.73785E-03
         TOTAL TIME 2.59200E+06  43200.      720.00      30.000     8.21355E-02
1
1
                            STRESS PERIOD NO.   31, LENGTH =   1.000000    
                            -----------------------------------------------

                              NUMBER OF TIME STEPS =     1

                               MULTIPLIER FOR DELT =     1.000

                            INITIAL TIME STEP SIZE =   1.000000    

 REUSING NON-PARAMETER RIVER REACHES FROM LAST STRESS PERIOD

      2 RIVER REACHES

                 RECHARGE =  1.635345E-03
 
 SOLVING FOR HEAD 

 OUTPUT CONTROL FOR STRESS PERIOD   31   TIME STEP    1
    SAVE HEAD FOR ALL LAYERS

 HEAD WILL BE SAVED ON UNIT   51 AT END OF TIME STEP    1, STRESS PERIOD   31
1
  VOLUMETRIC BUDGET FOR ENTIRE MODEL AT END OF TIME STEP    1, STRESS PERIOD  31
  ------------------------------------------------------------------------------

     CUMULATIVE VOLUMES      L**3       RATES FOR THIS TIME STEP      L**3/T
     ------------------                 ------------------------

           IN:                                      IN:
           ---                                      ---
             STORAGE =           1.1674               STORAGE =       4.0301E-02
       CONSTANT HEAD =           0.0000         CONSTANT HEAD =           0.0000
       RIVER LEAKAGE =           0.0000         RIVER LEAKAGE =           0.0000
            RECHARGE =         606.3824              RECHARGE =          16.3535

            TOTAL IN =         607.5498              TOTAL IN =          16.3938

          OUT:                                     OUT:
          ----                                     ----
             STORAGE =         315.3584               STORAGE =           5.9658
       CONSTANT HEAD =         101.6268         CONSTANT HEAD =           3.3071
       RIVER LEAKAGE =         190.5648         RIVER LEAKAGE =           7.1210
            RECHARGE =           0.0000              RECHARGE =           0.0000

           TOTAL OUT =         607.5499             TOTAL OUT =          16.3939

            IN - OUT =      -1.2207E-04              IN - OUT =      -1.3351E-04

 PERCENT DISCREPANCY =          -0.00     PERCENT DISCREPANCY =          -0.00






         TIME SUMMARY AT END OF TIME STEP    1 IN STRESS PERIOD   31
                    SECONDS     MINUTES      HOURS       DAYS        YEARS
                    -----------------------------------------------------------
   TIME STEP LENGTH  86400.      1440.0      24.000      1.0000     2.73785E-03
 STRESS PERIOD TIME  86400.      1440.0      24.000      1.0000     2.73785E-03
         TOTAL TIME 2.67840E+06  44640.      744.00      31.000     8.48734E-02
1
1
                            STRESS PERIOD NO.   32, LENGTH =   1.000000    
                            -----------------------------------------------

                              NUMBER OF TIME STEPS =     1

                               MULTIPLIER FOR DELT =     1.000

                            INITIAL TIME STEP SIZE =   1.000000    

 REUSING NON-PARAMETER RIVER REACHES FROM LAST STRESS PERIOD

      2 RIVER REACHES

                 RECHARGE =  1.881466E-03
 
 SOLVING FOR HEAD 

 OUTPUT CONTROL FOR STRESS PERIOD   32   TIME STEP    1
    SAVE HEAD FOR ALL LAYERS

 HEAD WILL BE SAVED ON UNIT   51 AT END OF TIME STEP    1, STRESS PERIOD   32
1
  VOLUMETRIC BUDGET FOR ENTIRE MODEL AT END OF TIME STEP    1, STRESS PERIOD  32
  ------------------------------------------------------------------------------

     CUMULATIVE VOLUMES      L**3       RATES FOR THIS TIME STEP      L**3/T
     ------------------                 ------------------------

           IN:                                      IN:
           ---                                      ---
             STORAGE =           1.1674               STORAGE =           0.0000
       CONSTANT HEAD =           0.0000         CONSTANT HEAD =           0.0000
       RIVER LEAKAGE =           0.0000         RIVER LEAKAGE =           0.0000
            RECHARGE =         625.1970              RECHARGE =          18.8147

            TOTAL IN =         626.3644              TOTAL IN =          18.8147

          OUT:                                     OUT:
          ----                                     ----
             STORAGE =         323.6655               STORAGE =           8.3071
       CONSTANT HEAD =         104.9362         CONSTANT HEAD =           3.3094
       RIVER LEAKAGE =         197.7629         RIVER LEAKAGE =           7.1981
            RECHARGE =           0.0000              RECHARGE =           0.0000

           TOTAL OUT =         626.3646             TOTAL OUT =          18.8146

            IN - OUT =      -1.2207E-04              IN - OUT =       6.4850E-05

 PERCENT DISCREPANCY =          -0.00     PERCENT DISCREPANCY =           0.00






         TIME SUMMARY AT END OF TIME STEP    1 IN STRESS PERIOD   32
                    SECONDS     MINUTES      HOURS       DAYS        YEARS
                    -----------------------------------------------------------
   TIME STEP LENGTH  86400.      1440.0      24.000      1.0000     2.73785E-03
 STRESS PERIOD TIME  86400.      1440.0      24.000      1.0000     2.73785E-03
         TOTAL TIME 2.76480E+06  46080.      768.00      32.000     8.76112E-02
1
1
                            STRESS PERIOD NO.   33, LENGTH =   1.000000    
                            -----------------------------------------------

                              NUMBER OF TIME STEPS =     1

                               MULTIPLIER FOR DELT =     1.000

                            INITIAL TIME STEP SIZE =   1.000000    

 REUSING NON-PARAMETER RIVER REACHES FROM LAST STRESS PERIOD

      2 RIVER REACHES

                 RECHARGE =  1.484914E-03
 
 SOLVING FOR HEAD 

 OUTPUT CONTROL FOR STRESS PERIOD   33   TIME STEP    1
    SAVE HEAD FOR ALL LAYERS

 HEAD WILL BE SAVED ON UNIT   51 AT END OF TIME STEP    1, STRESS PERIOD   33
1
  VOLUMETRIC BUDGET FOR ENTIRE MODEL AT END OF TIME STEP    1, STRESS PERIOD  33
  ------------------------------------------------------------------------------

     CUMULATIVE VOLUMES      L**3       RATES FOR THIS TIME STEP      L**3/T
     ------------------                 ------------------------

           IN:                                      IN:
           ---                                      ---
             STORAGE =           1.2949               STORAGE =           0.1275
       CONSTANT HEAD =           0.0000         CONSTANT HEAD =           0.0000
       RIVER LEAKAGE =           0.0000         RIVER LEAKAGE =           0.0000
            RECHARGE =         640.0461              RECHARGE =          14.8491

            TOTAL IN =         641.3411              TOTAL IN =          14.9767

          OUT:                                     OUT:
          ----                                     ----
             STORAGE =         328.2124               STORAGE =           4.5469
       CONSTANT HEAD =         108.2478         CONSTANT HEAD =           3.3116
       RIVER LEAKAGE =         204.8811         RIVER LEAKAGE =           7.1182
            RECHARGE =           0.0000              RECHARGE =           0.0000

           TOTAL OUT =         641.3412             TOTAL OUT =          14.9767

            IN - OUT =      -1.8311E-04              IN - OUT =      -4.4823E-05

 PERCENT DISCREPANCY =          -0.00     PERCENT DISCREPANCY =          -0.00






         TIME SUMMARY AT END OF TIME STEP    1 IN STRESS PERIOD   33
                    SECONDS     MINUTES      HOURS       DAYS        YEARS
                    -----------------------------------------------------------
   TIME STEP LENGTH  86400.      1440.0      24.000      1.0000     2.73785E-03
 STRESS PERIOD TIME  86400.      1440.0      24.000      1.0000     2.73785E-03
         TOTAL TIME 2.85120E+06  47520.      792.00      33.000     9.03491E-02
1
1
                            STRESS PERIOD NO.   34, LENGTH =   1.000000    
                            -----------------------------------------------

                              NUMBER OF TIME STEPS =     1

                               MULTIPLIER FOR DELT =     1.000

                            INITIAL TIME STEP SIZE =   1.000000    

 REUSING NON-PARAMETER RIVER REACHES FROM LAST STRESS PERIOD

      2 RIVER REACHES

                 RECHARGE =  1.469397E-03
 
 SOLVING FOR HEAD 

 OUTPUT CONTROL FOR STRESS PERIOD   34   TIME STEP    1
    SAVE HEAD FOR ALL LAYERS

 HEAD WILL BE SAVED ON UNIT   51 AT END OF TIME STEP    1, STRESS PERIOD   34
1
  VOLUMETRIC BUDGET FOR ENTIRE MODEL AT END OF TIME STEP    1, STRESS PERIOD  34
  ------------------------------------------------------------------------------

     CUMULATIVE VOLUMES      L**3       RATES FOR THIS TIME STEP      L**3/T
     ------------------                 ------------------------

           IN:                                      IN:
           ---                                      ---
             STORAGE =           1.3742               STORAGE =       7.9245E-02
       CONSTANT HEAD =           0.0000         CONSTANT HEAD =           0.0000
       RIVER LEAKAGE =           0.0000         RIVER LEAKAGE =           0.0000
            RECHARGE =         654.7401              RECHARGE =          14.6940

            TOTAL IN =         656.1143              TOTAL IN =          14.7732

          OUT:                                     OUT:
          ----                                     ----
             STORAGE =         332.5910               STORAGE =           4.3786
       CONSTANT HEAD =         111.5615         CONSTANT HEAD =           3.3138
       RIVER LEAKAGE =         211.9617         RIVER LEAKAGE =           7.0806
            RECHARGE =           0.0000              RECHARGE =           0.0000

           TOTAL OUT =         656.1142             TOTAL OUT =          14.7729

            IN - OUT =       1.2207E-04              IN - OUT =       2.8133E-04

 PERCENT DISCREPANCY =           0.00     PERCENT DISCREPANCY =           0.00






         TIME SUMMARY AT END OF TIME STEP    1 IN STRESS PERIOD   34
                    SECONDS     MINUTES      HOURS       DAYS        YEARS
                    -----------------------------------------------------------
   TIME STEP LENGTH  86400.      1440.0      24.000      1.0000     2.73785E-03
 STRESS PERIOD TIME  86400.      1440.0      24.000      1.0000     2.73785E-03
         TOTAL TIME 2.93760E+06  48960.      816.00      34.000     9.30869E-02
1
1
                            STRESS PERIOD NO.   35, LENGTH =   1.000000    
                            -----------------------------------------------

                              NUMBER OF TIME STEPS =     1

                               MULTIPLIER FOR DELT =     1.000

                            INITIAL TIME STEP SIZE =   1.000000    

 REUSING NON-PARAMETER RIVER REACHES FROM LAST STRESS PERIOD

      2 RIVER REACHES

                 RECHARGE =  2.242672E-03
 
 SOLVING FOR HEAD 

 OUTPUT CONTROL FOR STRESS PERIOD   35   TIME STEP    1
    SAVE HEAD FOR ALL LAYERS

 HEAD WILL BE SAVED ON UNIT   51 AT END OF TIME STEP    1, STRESS PERIOD   35
1
  VOLUMETRIC BUDGET FOR ENTIRE MODEL AT END OF TIME STEP    1, STRESS PERIOD  35
  ------------------------------------------------------------------------------

     CUMULATIVE VOLUMES      L**3       RATES FOR THIS TIME STEP      L**3/T
     ------------------                 ------------------------

           IN:                                      IN:
           ---                                      ---
             STORAGE =           1.3742               STORAGE =           0.0000
       CONSTANT HEAD =           0.0000         CONSTANT HEAD =           0.0000
       RIVER LEAKAGE =           0.0000         RIVER LEAKAGE =           0.0000
            RECHARGE =         677.1668              RECHARGE =          22.4267

            TOTAL IN =         678.5410              TOTAL IN =          22.4267

          OUT:                                     OUT:
          ----                                     ----
             STORAGE =         344.3664               STORAGE =          11.7754
       CONSTANT HEAD =         114.8777         CONSTANT HEAD =           3.3162
       RIVER LEAKAGE =         219.2967         RIVER LEAKAGE =           7.3350
            RECHARGE =           0.0000              RECHARGE =           0.0000

           TOTAL OUT =         678.5408             TOTAL OUT =          22.4266

            IN - OUT =       2.4414E-04              IN - OUT =       1.4687E-04

 PERCENT DISCREPANCY =           0.00     PERCENT DISCREPANCY =           0.00






         TIME SUMMARY AT END OF TIME STEP    1 IN STRESS PERIOD   35
                    SECONDS     MINUTES      HOURS       DAYS        YEARS
                    -----------------------------------------------------------
   TIME STEP LENGTH  86400.      1440.0      24.000      1.0000     2.73785E-03
 STRESS PERIOD TIME  86400.      1440.0      24.000      1.0000     2.73785E-03
         TOTAL TIME 3.02400E+06  50400.      840.00      35.000     9.58248E-02
1
1
                            STRESS PERIOD NO.   36, LENGTH =   1.000000    
                            -----------------------------------------------

                              NUMBER OF TIME STEPS =     1

                               MULTIPLIER FOR DELT =     1.000

                            INITIAL TIME STEP SIZE =   1.000000    

 REUSING NON-PARAMETER RIVER REACHES FROM LAST STRESS PERIOD

      2 RIVER REACHES

                 RECHARGE =  1.573707E-03
 
 SOLVING FOR HEAD 

 OUTPUT CONTROL FOR STRESS PERIOD   36   TIME STEP    1
    SAVE HEAD FOR ALL LAYERS

 HEAD WILL BE SAVED ON UNIT   51 AT END OF TIME STEP    1, STRESS PERIOD   36
1
  VOLUMETRIC BUDGET FOR ENTIRE MODEL AT END OF TIME STEP    1, STRESS PERIOD  36
  ------------------------------------------------------------------------------

     CUMULATIVE VOLUMES      L**3       RATES FOR THIS TIME STEP      L**3/T
     ------------------                 ------------------------

           IN:                                      IN:
           ---                                      ---
             STORAGE =           1.4279               STORAGE =       5.3750E-02
       CONSTANT HEAD =           0.0000         CONSTANT HEAD =           0.0000
       RIVER LEAKAGE =           0.0000         RIVER LEAKAGE =           0.0000
            RECHARGE =         692.9039              RECHARGE =          15.7371

            TOTAL IN =         694.3318              TOTAL IN =          15.7908

          OUT:                                     OUT:
          ----                                     ----
             STORAGE =         349.5764               STORAGE =           5.2101
       CONSTANT HEAD =         118.1962         CONSTANT HEAD =           3.3185
       RIVER LEAKAGE =         226.5590         RIVER LEAKAGE =           7.2623
            RECHARGE =           0.0000              RECHARGE =           0.0000

           TOTAL OUT =         694.3316             TOTAL OUT =          15.7909

            IN - OUT =       1.8311E-04              IN - OUT =      -3.7193E-05

 PERCENT DISCREPANCY =           0.00     PERCENT DISCREPANCY =          -0.00






         TIME SUMMARY AT END OF TIME STEP    1 IN STRESS PERIOD   36
                    SECONDS     MINUTES      HOURS       DAYS        YEARS
                    -----------------------------------------------------------
   TIME STEP LENGTH  86400.      1440.0      24.000      1.0000     2.73785E-03
 STRESS PERIOD TIME  86400.      1440.0      24.000      1.0000     2.73785E-03
         TOTAL TIME 3.11040E+06  51840.      864.00      36.000     9.85626E-02
1
1
                            STRESS PERIOD NO.   37, LENGTH =   1.000000    
                            -----------------------------------------------

                              NUMBER OF TIME STEPS =     1

                               MULTIPLIER FOR DELT =     1.000

                            INITIAL TIME STEP SIZE =   1.000000    

 REUSING NON-PARAMETER RIVER REACHES FROM LAST STRESS PERIOD

      2 RIVER REACHES

                 RECHARGE =  1.708190E-03
 
 SOLVING FOR HEAD 

 OUTPUT CONTROL FOR STRESS PERIOD   37   TIME STEP    1
    SAVE HEAD FOR ALL LAYERS

 HEAD WILL BE SAVED ON UNIT   51 AT END OF TIME STEP    1, STRESS PERIOD   37
1
  VOLUMETRIC BUDGET FOR ENTIRE MODEL AT END OF TIME STEP    1, STRESS PERIOD  37
  ------------------------------------------------------------------------------

     CUMULATIVE VOLUMES      L**3       RATES FOR THIS TIME STEP      L**3/T
     ------------------                 ------------------------

           IN:                                      IN:
           ---                                      ---
             STORAGE =           1.4279               STORAGE =           0.0000
       CONSTANT HEAD =           0.0000         CONSTANT HEAD =           0.0000
       RIVER LEAKAGE =           0.0000         RIVER LEAKAGE =           0.0000
            RECHARGE =         709.9858              RECHARGE =          17.0819

            TOTAL IN =         711.4137              TOTAL IN =          17.0819

          OUT:                                     OUT:
          ----                                     ----
             STORAGE =         356.0442               STORAGE =           6.4678
       CONSTANT HEAD =         121.5170         CONSTANT HEAD =           3.3208
       RIVER LEAKAGE =         233.8522         RIVER LEAKAGE =           7.2932
            RECHARGE =           0.0000              RECHARGE =           0.0000

           TOTAL OUT =         711.4134             TOTAL OUT =          17.0818

            IN - OUT =       3.0518E-04              IN - OUT =       1.2970E-04

 PERCENT DISCREPANCY =           0.00     PERCENT DISCREPANCY =           0.00






         TIME SUMMARY AT END OF TIME STEP    1 IN STRESS PERIOD   37
                    SECONDS     MINUTES      HOURS       DAYS        YEARS
                    -----------------------------------------------------------
   TIME STEP LENGTH  86400.      1440.0      24.000      1.0000     2.73785E-03
 STRESS PERIOD TIME  86400.      1440.0      24.000      1.0000     2.73785E-03
         TOTAL TIME 3.19680E+06  53280.      888.00      37.000     0.10130    
1
1
                            STRESS PERIOD NO.   38, LENGTH =   1.000000    
                            -----------------------------------------------

                              NUMBER OF TIME STEPS =     1

                               MULTIPLIER FOR DELT =     1.000

                            INITIAL TIME STEP SIZE =   1.000000    

 REUSING NON-PARAMETER RIVER REACHES FROM LAST STRESS PERIOD

      2 RIVER REACHES

                 RECHARGE =  1.863362E-03
 
 SOLVING FOR HEAD 

 OUTPUT CONTROL FOR STRESS PERIOD   38   TIME STEP    1
    SAVE HEAD FOR ALL LAYERS

 HEAD WILL BE SAVED ON UNIT   51 AT END OF TIME STEP    1, STRESS PERIOD   38
1
  VOLUMETRIC BUDGET FOR ENTIRE MODEL AT END OF TIME STEP    1, STRESS PERIOD  38
  ------------------------------------------------------------------------------

     CUMULATIVE VOLUMES      L**3       RATES FOR THIS TIME STEP      L**3/T
     ------------------                 ------------------------

           IN:                                      IN:
           ---                                      ---
             STORAGE =           1.4279               STORAGE =           0.0000
       CONSTANT HEAD =           0.0000         CONSTANT HEAD =           0.0000
       RIVER LEAKAGE =           0.0000         RIVER LEAKAGE =           0.0000
            RECHARGE =         728.6194              RECHARGE =          18.6336

            TOTAL IN =         730.0473              TOTAL IN =          18.6336

          OUT:                                     OUT:
          ----                                     ----
             STORAGE =         363.9771               STORAGE =           7.9329
       CONSTANT HEAD =         124.8401         CONSTANT HEAD =           3.3232
       RIVER LEAKAGE =         241.2300         RIVER LEAKAGE =           7.3778
            RECHARGE =           0.0000              RECHARGE =           0.0000

           TOTAL OUT =         730.0472             TOTAL OUT =          18.6338

            IN - OUT =       6.1035E-05              IN - OUT =      -2.2316E-04

 PERCENT DISCREPANCY =           0.00     PERCENT DISCREPANCY =          -0.00






         TIME SUMMARY AT END OF TIME STEP    1 IN STRESS PERIOD   38
                    SECONDS     MINUTES      HOURS       DAYS        YEARS
                    -----------------------------------------------------------
   TIME STEP LENGTH  86400.      1440.0      24.000      1.0000     2.73785E-03
 STRESS PERIOD TIME  86400.      1440.0      24.000      1.0000     2.73785E-03
         TOTAL TIME 3.28320E+06  54720.      912.00      38.000     0.10404    
1
1
                            STRESS PERIOD NO.   39, LENGTH =   1.000000    
                            -----------------------------------------------

                              NUMBER OF TIME STEPS =     1

                               MULTIPLIER FOR DELT =     1.000

                            INITIAL TIME STEP SIZE =   1.000000    

 REUSING NON-PARAMETER RIVER REACHES FROM LAST STRESS PERIOD

      2 RIVER REACHES

                 RECHARGE =  1.754741E-03
 
 SOLVING FOR HEAD 

 OUTPUT CONTROL FOR STRESS PERIOD   39   TIME STEP    1
    SAVE HEAD FOR ALL LAYERS

 HEAD WILL BE SAVED ON UNIT   51 AT END OF TIME STEP    1, STRESS PERIOD   39
1
  VOLUMETRIC BUDGET FOR ENTIRE MODEL AT END OF TIME STEP    1, STRESS PERIOD  39
  ------------------------------------------------------------------------------

     CUMULATIVE VOLUMES      L**3       RATES FOR THIS TIME STEP      L**3/T
     ------------------                 ------------------------

           IN:                                      IN:
           ---                                      ---
             STORAGE =           1.4279               STORAGE =           0.0000
       CONSTANT HEAD =           0.0000         CONSTANT HEAD =           0.0000
       RIVER LEAKAGE =           0.0000         RIVER LEAKAGE =           0.0000
            RECHARGE =         746.1668              RECHARGE =          17.5474

            TOTAL IN =         747.5947              TOTAL IN =          17.5474

          OUT:                                     OUT:
          ----                                     ----
             STORAGE =         370.7944               STORAGE =           6.8173
       CONSTANT HEAD =         128.1657         CONSTANT HEAD =           3.3256
       RIVER LEAKAGE =         248.6347         RIVER LEAKAGE =           7.4047
            RECHARGE =           0.0000              RECHARGE =           0.0000

           TOTAL OUT =         747.5948             TOTAL OUT =          17.5476

            IN - OUT =      -1.2207E-04              IN - OUT =      -1.7548E-04

 PERCENT DISCREPANCY =          -0.00     PERCENT DISCREPANCY =          -0.00






         TIME SUMMARY AT END OF TIME STEP    1 IN STRESS PERIOD   39
                    SECONDS     MINUTES      HOURS       DAYS        YEARS
                    -----------------------------------------------------------
   TIME STEP LENGTH  86400.      1440.0      24.000      1.0000     2.73785E-03
 STRESS PERIOD TIME  86400.      1440.0      24.000      1.0000     2.73785E-03
         TOTAL TIME 3.36960E+06  56160.      936.00      39.000     0.10678    
1
1
                            STRESS PERIOD NO.   40, LENGTH =   1.000000    
                            -----------------------------------------------

                              NUMBER OF TIME STEPS =     1

                               MULTIPLIER FOR DELT =     1.000

                            INITIAL TIME STEP SIZE =   1.000000    

 REUSING NON-PARAMETER RIVER REACHES FROM LAST STRESS PERIOD

      2 RIVER REACHES

                 RECHARGE =  1.835776E-03
 
 SOLVING FOR HEAD 

 OUTPUT CONTROL FOR STRESS PERIOD   40   TIME STEP    1
    SAVE HEAD FOR ALL LAYERS

 HEAD WILL BE SAVED ON UNIT   51 AT END OF TIME STEP    1, STRESS PERIOD   40
1
  VOLUMETRIC BUDGET FOR ENTIRE MODEL AT END OF TIME STEP    1, STRESS PERIOD  40
  ------------------------------------------------------------------------------

     CUMULATIVE VOLUMES      L**3       RATES FOR THIS TIME STEP      L**3/T
     ------------------                 ------------------------

           IN:                                      IN:
           ---                                      ---
             STORAGE =           1.4279               STORAGE =           0.0000
       CONSTANT HEAD =           0.0000         CONSTANT HEAD =           0.0000
       RIVER LEAKAGE =           0.0000         RIVER LEAKAGE =           0.0000
            RECHARGE =         764.5246              RECHARGE =          18.3578

            TOTAL IN =         765.9525              TOTAL IN =          18.3578

          OUT:                                     OUT:
          ----                                     ----
             STORAGE =         378.3564               STORAGE =           7.5620
       CONSTANT HEAD =         131.4937         CONSTANT HEAD =           3.3280
       RIVER LEAKAGE =         256.1025         RIVER LEAKAGE =           7.4678
            RECHARGE =           0.0000              RECHARGE =           0.0000

           TOTAL OUT =         765.9526             TOTAL OUT =          18.3578

            IN - OUT =      -1.2207E-04              IN - OUT =      -3.0518E-05

 PERCENT DISCREPANCY =          -0.00     PERCENT DISCREPANCY =          -0.00






         TIME SUMMARY AT END OF TIME STEP    1 IN STRESS PERIOD   40
                    SECONDS     MINUTES      HOURS       DAYS        YEARS
                    -----------------------------------------------------------
   TIME STEP LENGTH  86400.      1440.0      24.000      1.0000     2.73785E-03
 STRESS PERIOD TIME  86400.      1440.0      24.000      1.0000     2.73785E-03
         TOTAL TIME 3.45600E+06  57600.      960.00      40.000     0.10951    
1
1
                            STRESS PERIOD NO.   41, LENGTH =   1.000000    
                            -----------------------------------------------

                              NUMBER OF TIME STEPS =     1

                               MULTIPLIER FOR DELT =     1.000

                            INITIAL TIME STEP SIZE =   1.000000    

 REUSING NON-PARAMETER RIVER REACHES FROM LAST STRESS PERIOD

      2 RIVER REACHES

                 RECHARGE =  2.525000E-03
 
 SOLVING FOR HEAD 

 OUTPUT CONTROL FOR STRESS PERIOD   41   TIME STEP    1
    SAVE HEAD FOR ALL LAYERS

 HEAD WILL BE SAVED ON UNIT   51 AT END OF TIME STEP    1, STRESS PERIOD   41
1
  VOLUMETRIC BUDGET FOR ENTIRE MODEL AT END OF TIME STEP    1, STRESS PERIOD  41
  ------------------------------------------------------------------------------

     CUMULATIVE VOLUMES      L**3       RATES FOR THIS TIME STEP      L**3/T
     ------------------                 ------------------------

           IN:                                      IN:
           ---                                      ---
             STORAGE =           1.4279               STORAGE =           0.0000
       CONSTANT HEAD =           0.0000         CONSTANT HEAD =           0.0000
       RIVER LEAKAGE =           0.0000         RIVER LEAKAGE =           0.0000
            RECHARGE =         789.7746              RECHARGE =          25.2500

            TOTAL IN =         791.2025              TOTAL IN =          25.2500

          OUT:                                     OUT:
          ----                                     ----
             STORAGE =         392.5107               STORAGE =          14.1543
       CONSTANT HEAD =         134.8245         CONSTANT HEAD =           3.3307
       RIVER LEAKAGE =         263.8673         RIVER LEAKAGE =           7.7648
            RECHARGE =           0.0000              RECHARGE =           0.0000

           TOTAL OUT =         791.2025             TOTAL OUT =          25.2499

            IN - OUT =           0.0000              IN - OUT =       8.9645E-05

 PERCENT DISCREPANCY =           0.00     PERCENT DISCREPANCY =           0.00






         TIME SUMMARY AT END OF TIME STEP    1 IN STRESS PERIOD   41
                    SECONDS     MINUTES      HOURS       DAYS        YEARS
                    -----------------------------------------------------------
   TIME STEP LENGTH  86400.      1440.0      24.000      1.0000     2.73785E-03
 STRESS PERIOD TIME  86400.      1440.0      24.000      1.0000     2.73785E-03
         TOTAL TIME 3.54240E+06  59040.      984.00      41.000     0.11225    
1
1
                            STRESS PERIOD NO.   42, LENGTH =   1.000000    
                            -----------------------------------------------

                              NUMBER OF TIME STEPS =     1

                               MULTIPLIER FOR DELT =     1.000

                            INITIAL TIME STEP SIZE =   1.000000    

 REUSING NON-PARAMETER RIVER REACHES FROM LAST STRESS PERIOD

      2 RIVER REACHES

                 RECHARGE =  1.134052E-03
 
 SOLVING FOR HEAD 

 OUTPUT CONTROL FOR STRESS PERIOD   42   TIME STEP    1
    SAVE HEAD FOR ALL LAYERS

 HEAD WILL BE SAVED ON UNIT   51 AT END OF TIME STEP    1, STRESS PERIOD   42
1
  VOLUMETRIC BUDGET FOR ENTIRE MODEL AT END OF TIME STEP    1, STRESS PERIOD  42
  ------------------------------------------------------------------------------

     CUMULATIVE VOLUMES      L**3       RATES FOR THIS TIME STEP      L**3/T
     ------------------                 ------------------------

           IN:                                      IN:
           ---                                      ---
             STORAGE =           2.4797               STORAGE =           1.0518
       CONSTANT HEAD =           0.0000         CONSTANT HEAD =           0.0000
       RIVER LEAKAGE =           0.0000         RIVER LEAKAGE =           0.0000
            RECHARGE =         801.1151              RECHARGE =          11.3405

            TOTAL IN =         803.5948              TOTAL IN =          12.3923

          OUT:                                     OUT:
          ----                                     ----
             STORAGE =         394.0924               STORAGE =           1.5816
       CONSTANT HEAD =         138.1575         CONSTANT HEAD =           3.3331
       RIVER LEAKAGE =         271.3450         RIVER LEAKAGE =           7.4777
            RECHARGE =           0.0000              RECHARGE =           0.0000

           TOTAL OUT =         803.5949             TOTAL OUT =          12.3924

            IN - OUT =      -1.2207E-04              IN - OUT =      -1.0777E-04

 PERCENT DISCREPANCY =          -0.00     PERCENT DISCREPANCY =          -0.00






         TIME SUMMARY AT END OF TIME STEP    1 IN STRESS PERIOD   42
                    SECONDS     MINUTES      HOURS       DAYS        YEARS
                    -----------------------------------------------------------
   TIME STEP LENGTH  86400.      1440.0      24.000      1.0000     2.73785E-03
 STRESS PERIOD TIME  86400.      1440.0      24.000      1.0000     2.73785E-03
         TOTAL TIME 3.62880E+06  60480.      1008.0      42.000     0.11499    
1
1
                            STRESS PERIOD NO.   43, LENGTH =   1.000000    
                            -----------------------------------------------

                              NUMBER OF TIME STEPS =     1

                               MULTIPLIER FOR DELT =     1.000

                            INITIAL TIME STEP SIZE =   1.000000    

 REUSING NON-PARAMETER RIVER REACHES FROM LAST STRESS PERIOD

      2 RIVER REACHES

                 RECHARGE =  2.307328E-03
 
 SOLVING FOR HEAD 

 OUTPUT CONTROL FOR STRESS PERIOD   43   TIME STEP    1
    SAVE HEAD FOR ALL LAYERS

 HEAD WILL BE SAVED ON UNIT   51 AT END OF TIME STEP    1, STRESS PERIOD   43
1
  VOLUMETRIC BUDGET FOR ENTIRE MODEL AT END OF TIME STEP    1, STRESS PERIOD  43
  ------------------------------------------------------------------------------

     CUMULATIVE VOLUMES      L**3       RATES FOR THIS TIME STEP      L**3/T
     ------------------                 ------------------------

           IN:                                      IN:
           ---                                      ---
             STORAGE =           2.4797               STORAGE =           0.0000
       CONSTANT HEAD =           0.0000         CONSTANT HEAD =           0.0000
       RIVER LEAKAGE =           0.0000         RIVER LEAKAGE =           0.0000
            RECHARGE =         824.1884              RECHARGE =          23.0733

            TOTAL IN =         826.6681              TOTAL IN =          23.0733

          OUT:                                     OUT:
          ----                                     ----
             STORAGE =         406.0787               STORAGE =          11.9863
       CONSTANT HEAD =         141.4933         CONSTANT HEAD =           3.3357
       RIVER LEAKAGE =         279.0962         RIVER LEAKAGE =           7.7512
            RECHARGE =           0.0000              RECHARGE =           0.0000

           TOTAL OUT =         826.6682             TOTAL OUT =          23.0732

            IN - OUT =      -6.1035E-05              IN - OUT =       5.1498E-05

 PERCENT DISCREPANCY =          -0.00     PERCENT DISCREPANCY =           0.00






         TIME SUMMARY AT END OF TIME STEP    1 IN STRESS PERIOD   43
                    SECONDS     MINUTES      HOURS       DAYS        YEARS
                    -----------------------------------------------------------
   TIME STEP LENGTH  86400.      1440.0      24.000      1.0000     2.73785E-03
 STRESS PERIOD TIME  86400.      1440.0      24.000      1.0000     2.73785E-03
         TOTAL TIME 3.71520E+06  61920.      1032.0      43.000     0.11773    
1
1
                            STRESS PERIOD NO.   44, LENGTH =   1.000000    
                            -----------------------------------------------

                              NUMBER OF TIME STEPS =     1

                               MULTIPLIER FOR DELT =     1.000

                            INITIAL TIME STEP SIZE =   1.000000    

 REUSING NON-PARAMETER RIVER REACHES FROM LAST STRESS PERIOD

      2 RIVER REACHES

                 RECHARGE =  1.801724E-03
 
 SOLVING FOR HEAD 

 OUTPUT CONTROL FOR STRESS PERIOD   44   TIME STEP    1
    SAVE HEAD FOR ALL LAYERS

 HEAD WILL BE SAVED ON UNIT   51 AT END OF TIME STEP    1, STRESS PERIOD   44
1
  VOLUMETRIC BUDGET FOR ENTIRE MODEL AT END OF TIME STEP    1, STRESS PERIOD  44
  ------------------------------------------------------------------------------

     CUMULATIVE VOLUMES      L**3       RATES FOR THIS TIME STEP      L**3/T
     ------------------                 ------------------------

           IN:                                      IN:
           ---                                      ---
             STORAGE =           2.4807               STORAGE =       9.7919E-04
       CONSTANT HEAD =           0.0000         CONSTANT HEAD =           0.0000
       RIVER LEAKAGE =           0.0000         RIVER LEAKAGE =           0.0000
            RECHARGE =         842.2056              RECHARGE =          18.0172

            TOTAL IN =         844.6863              TOTAL IN =          18.0182

          OUT:                                     OUT:
          ----                                     ----
             STORAGE =         413.0179               STORAGE =           6.9392
       CONSTANT HEAD =         144.8316         CONSTANT HEAD =           3.3383
       RIVER LEAKAGE =         286.8369         RIVER LEAKAGE =           7.7408
            RECHARGE =           0.0000              RECHARGE =           0.0000

           TOTAL OUT =         844.6864             TOTAL OUT =          18.0182

            IN - OUT =      -6.1035E-05              IN - OUT =      -3.0518E-05

 PERCENT DISCREPANCY =          -0.00     PERCENT DISCREPANCY =          -0.00






         TIME SUMMARY AT END OF TIME STEP    1 IN STRESS PERIOD   44
                    SECONDS     MINUTES      HOURS       DAYS        YEARS
                    -----------------------------------------------------------
   TIME STEP LENGTH  86400.      1440.0      24.000      1.0000     2.73785E-03
 STRESS PERIOD TIME  86400.      1440.0      24.000      1.0000     2.73785E-03
         TOTAL TIME 3.80160E+06  63360.      1056.0      44.000     0.12047    
1
1
                            STRESS PERIOD NO.   45, LENGTH =   1.000000    
                            -----------------------------------------------

                              NUMBER OF TIME STEPS =     1

                               MULTIPLIER FOR DELT =     1.000

                            INITIAL TIME STEP SIZE =   1.000000    

 REUSING NON-PARAMETER RIVER REACHES FROM LAST STRESS PERIOD

      2 RIVER REACHES

                 RECHARGE =  2.709052E-03
 
 SOLVING FOR HEAD 

 OUTPUT CONTROL FOR STRESS PERIOD   45   TIME STEP    1
    SAVE HEAD FOR ALL LAYERS

 HEAD WILL BE SAVED ON UNIT   51 AT END OF TIME STEP    1, STRESS PERIOD   45
1
  VOLUMETRIC BUDGET FOR ENTIRE MODEL AT END OF TIME STEP    1, STRESS PERIOD  45
  ------------------------------------------------------------------------------

     CUMULATIVE VOLUMES      L**3       RATES FOR THIS TIME STEP      L**3/T
     ------------------                 ------------------------

           IN:                                      IN:
           ---                                      ---
             STORAGE =           2.4807               STORAGE =           0.0000
       CONSTANT HEAD =           0.0000         CONSTANT HEAD =           0.0000
       RIVER LEAKAGE =           0.0000         RIVER LEAKAGE =           0.0000
            RECHARGE =         869.2961              RECHARGE =          27.0905

            TOTAL IN =         871.7769              TOTAL IN =          27.0905

          OUT:                                     OUT:
          ----                                     ----
             STORAGE =         428.6840               STORAGE =          15.6661
       CONSTANT HEAD =         148.1728         CONSTANT HEAD =           3.3412
       RIVER LEAKAGE =         294.9202         RIVER LEAKAGE =           8.0832
            RECHARGE =           0.0000              RECHARGE =           0.0000

           TOTAL OUT =         871.7769             TOTAL OUT =          27.0905

            IN - OUT =      -6.1035E-05              IN - OUT =      -3.0518E-05

 PERCENT DISCREPANCY =          -0.00     PERCENT DISCREPANCY =          -0.00






         TIME SUMMARY AT END OF TIME STEP    1 IN STRESS PERIOD   45
                    SECONDS     MINUTES      HOURS       DAYS        YEARS
                    -----------------------------------------------------------
   TIME STEP LENGTH  86400.      1440.0      24.000      1.0000     2.73785E-03
 STRESS PERIOD TIME  86400.      1440.0      24.000      1.0000     2.73785E-03
         TOTAL TIME 3.88800E+06  64800.      1080.0      45.000     0.12320    
1
1
                            STRESS PERIOD NO.   46, LENGTH =   1.000000    
                            -----------------------------------------------

                              NUMBER OF TIME STEPS =     1

                               MULTIPLIER FOR DELT =     1.000

                            INITIAL TIME STEP SIZE =   1.000000    

 REUSING NON-PARAMETER RIVER REACHES FROM LAST STRESS PERIOD

      2 RIVER REACHES

                 RECHARGE =  1.178448E-03
 
 SOLVING FOR HEAD 

 OUTPUT CONTROL FOR STRESS PERIOD   46   TIME STEP    1
    SAVE HEAD FOR ALL LAYERS

 HEAD WILL BE SAVED ON UNIT   51 AT END OF TIME STEP    1, STRESS PERIOD   46
1
  VOLUMETRIC BUDGET FOR ENTIRE MODEL AT END OF TIME STEP    1, STRESS PERIOD  46
  ------------------------------------------------------------------------------

     CUMULATIVE VOLUMES      L**3       RATES FOR THIS TIME STEP      L**3/T
     ------------------                 ------------------------

           IN:                                      IN:
           ---                                      ---
             STORAGE =           3.5419               STORAGE =           1.0612
       CONSTANT HEAD =           0.0000         CONSTANT HEAD =           0.0000
       RIVER LEAKAGE =           0.0000         RIVER LEAKAGE =           0.0000
            RECHARGE =         881.0806              RECHARGE =          11.7845

            TOTAL IN =         884.6226              TOTAL IN =          12.8457

          OUT:                                     OUT:
          ----                                     ----
             STORAGE =         430.4111               STORAGE =           1.7271
       CONSTANT HEAD =         151.5166         CONSTANT HEAD =           3.3438
       RIVER LEAKAGE =         302.6951         RIVER LEAKAGE =           7.7749
            RECHARGE =           0.0000              RECHARGE =           0.0000

           TOTAL OUT =         884.6227             TOTAL OUT =          12.8458

            IN - OUT =      -1.2207E-04              IN - OUT =      -7.8201E-05

 PERCENT DISCREPANCY =          -0.00     PERCENT DISCREPANCY =          -0.00






         TIME SUMMARY AT END OF TIME STEP    1 IN STRESS PERIOD   46
                    SECONDS     MINUTES      HOURS       DAYS        YEARS
                    -----------------------------------------------------------
   TIME STEP LENGTH  86400.      1440.0      24.000      1.0000     2.73785E-03
 STRESS PERIOD TIME  86400.      1440.0      24.000      1.0000     2.73785E-03
         TOTAL TIME 3.97440E+06  66240.      1104.0      46.000     0.12594    
1
1
                            STRESS PERIOD NO.   47, LENGTH =   1.000000    
                            -----------------------------------------------

                              NUMBER OF TIME STEPS =     1

                               MULTIPLIER FOR DELT =     1.000

                            INITIAL TIME STEP SIZE =   1.000000    

 REUSING NON-PARAMETER RIVER REACHES FROM LAST STRESS PERIOD

      2 RIVER REACHES

                 RECHARGE =  6.133621E-04
 
 SOLVING FOR HEAD 

 OUTPUT CONTROL FOR STRESS PERIOD   47   TIME STEP    1
    SAVE HEAD FOR ALL LAYERS

 HEAD WILL BE SAVED ON UNIT   51 AT END OF TIME STEP    1, STRESS PERIOD   47
1
  VOLUMETRIC BUDGET FOR ENTIRE MODEL AT END OF TIME STEP    1, STRESS PERIOD  47
  ------------------------------------------------------------------------------

     CUMULATIVE VOLUMES      L**3       RATES FOR THIS TIME STEP      L**3/T
     ------------------                 ------------------------

           IN:                                      IN:
           ---                                      ---
             STORAGE =           8.3640               STORAGE =           4.8221
       CONSTANT HEAD =           0.0000         CONSTANT HEAD =           0.0000
       RIVER LEAKAGE =           0.0000         RIVER LEAKAGE =           0.0000
            RECHARGE =         887.2142              RECHARGE =           6.1336

            TOTAL IN =         895.5782              TOTAL IN =          10.9558

          OUT:                                     OUT:
          ----                                     ----
             STORAGE =         430.5935               STORAGE =           0.1824
       CONSTANT HEAD =         154.8625         CONSTANT HEAD =           3.3460
       RIVER LEAKAGE =         310.1224         RIVER LEAKAGE =           7.4273
            RECHARGE =           0.0000              RECHARGE =           0.0000

           TOTAL OUT =         895.5784             TOTAL OUT =          10.9557

            IN - OUT =      -1.8311E-04              IN - OUT =       5.3406E-05

 PERCENT DISCREPANCY =          -0.00     PERCENT DISCREPANCY =           0.00






         TIME SUMMARY AT END OF TIME STEP    1 IN STRESS PERIOD   47
                    SECONDS     MINUTES      HOURS       DAYS        YEARS
                    -----------------------------------------------------------
   TIME STEP LENGTH  86400.      1440.0      24.000      1.0000     2.73785E-03
 STRESS PERIOD TIME  86400.      1440.0      24.000      1.0000     2.73785E-03
         TOTAL TIME 4.06080E+06  67680.      1128.0      47.000     0.12868    
1
1
                            STRESS PERIOD NO.   48, LENGTH =   1.000000    
                            -----------------------------------------------

                              NUMBER OF TIME STEPS =     1

                               MULTIPLIER FOR DELT =     1.000

                            INITIAL TIME STEP SIZE =   1.000000    

 REUSING NON-PARAMETER RIVER REACHES FROM LAST STRESS PERIOD

      2 RIVER REACHES

                 RECHARGE =  1.075862E-03
 
 SOLVING FOR HEAD 

 OUTPUT CONTROL FOR STRESS PERIOD   48   TIME STEP    1
    SAVE HEAD FOR ALL LAYERS

 HEAD WILL BE SAVED ON UNIT   51 AT END OF TIME STEP    1, STRESS PERIOD   48
1
  VOLUMETRIC BUDGET FOR ENTIRE MODEL AT END OF TIME STEP    1, STRESS PERIOD  48
  ------------------------------------------------------------------------------

     CUMULATIVE VOLUMES      L**3       RATES FOR THIS TIME STEP      L**3/T
     ------------------                 ------------------------

           IN:                                      IN:
           ---                                      ---
             STORAGE =           9.3965               STORAGE =           1.0325
       CONSTANT HEAD =           0.0000         CONSTANT HEAD =           0.0000
       RIVER LEAKAGE =           0.0000         RIVER LEAKAGE =           0.0000
            RECHARGE =         897.9728              RECHARGE =          10.7586

            TOTAL IN =         907.3694              TOTAL IN =          11.7911

          OUT:                                     OUT:
          ----                                     ----
             STORAGE =         431.6665               STORAGE =           1.0730
       CONSTANT HEAD =         158.2107         CONSTANT HEAD =           3.3482
       RIVER LEAKAGE =         317.4921         RIVER LEAKAGE =           7.3697
            RECHARGE =           0.0000              RECHARGE =           0.0000

           TOTAL OUT =         907.3693             TOTAL OUT =          11.7909

            IN - OUT =       1.2207E-04              IN - OUT =       1.9550E-04

 PERCENT DISCREPANCY =           0.00     PERCENT DISCREPANCY =           0.00






         TIME SUMMARY AT END OF TIME STEP    1 IN STRESS PERIOD   48
                    SECONDS     MINUTES      HOURS       DAYS        YEARS
                    -----------------------------------------------------------
   TIME STEP LENGTH  86400.      1440.0      24.000      1.0000     2.73785E-03
 STRESS PERIOD TIME  86400.      1440.0      24.000      1.0000     2.73785E-03
         TOTAL TIME 4.14720E+06  69120.      1152.0      48.000     0.13142    
1
1
                            STRESS PERIOD NO.   49, LENGTH =   1.000000    
                            -----------------------------------------------

                              NUMBER OF TIME STEPS =     1

                               MULTIPLIER FOR DELT =     1.000

                            INITIAL TIME STEP SIZE =   1.000000    

 REUSING NON-PARAMETER RIVER REACHES FROM LAST STRESS PERIOD

      2 RIVER REACHES

                 RECHARGE =  4.375000E-04
 
 SOLVING FOR HEAD 

 OUTPUT CONTROL FOR STRESS PERIOD   49   TIME STEP    1
    SAVE HEAD FOR ALL LAYERS

 HEAD WILL BE SAVED ON UNIT   51 AT END OF TIME STEP    1, STRESS PERIOD   49
1
  VOLUMETRIC BUDGET FOR ENTIRE MODEL AT END OF TIME STEP    1, STRESS PERIOD  49
  ------------------------------------------------------------------------------

     CUMULATIVE VOLUMES      L**3       RATES FOR THIS TIME STEP      L**3/T
     ------------------                 ------------------------

           IN:                                      IN:
           ---                                      ---
             STORAGE =          15.6256               STORAGE =           6.2291
       CONSTANT HEAD =           0.0000         CONSTANT HEAD =           0.0000
       RIVER LEAKAGE =           0.0000         RIVER LEAKAGE =           0.0000
            RECHARGE =         902.3478              RECHARGE =           4.3750

            TOTAL IN =         917.9734              TOTAL IN =          10.6041

          OUT:                                     OUT:
          ----                                     ----
             STORAGE =         431.8403               STORAGE =           0.1738
       CONSTANT HEAD =         161.5609         CONSTANT HEAD =           3.3501
       RIVER LEAKAGE =         324.5722         RIVER LEAKAGE =           7.0801
            RECHARGE =           0.0000              RECHARGE =           0.0000

           TOTAL OUT =         917.9734             TOTAL OUT =          10.6041

            IN - OUT =       6.1035E-05              IN - OUT =       5.1498E-05

 PERCENT DISCREPANCY =           0.00     PERCENT DISCREPANCY =           0.00






         TIME SUMMARY AT END OF TIME STEP    1 IN STRESS PERIOD   49
                    SECONDS     MINUTES      HOURS       DAYS        YEARS
                    -----------------------------------------------------------
   TIME STEP LENGTH  86400.      1440.0      24.000      1.0000     2.73785E-03
 STRESS PERIOD TIME  86400.      1440.0      24.000      1.0000     2.73785E-03
         TOTAL TIME 4.23360E+06  70560.      1176.0      49.000     0.13415    
1
1
                            STRESS PERIOD NO.   50, LENGTH =   1.000000    
                            -----------------------------------------------

                              NUMBER OF TIME STEPS =     1

                               MULTIPLIER FOR DELT =     1.000

                            INITIAL TIME STEP SIZE =   1.000000    

 REUSING NON-PARAMETER RIVER REACHES FROM LAST STRESS PERIOD

      2 RIVER REACHES

                 RECHARGE =  4.987069E-04
 
 SOLVING FOR HEAD 

 OUTPUT CONTROL FOR STRESS PERIOD   50   TIME STEP    1
    SAVE HEAD FOR ALL LAYERS

 HEAD WILL BE SAVED ON UNIT   51 AT END OF TIME STEP    1, STRESS PERIOD   50
1
  VOLUMETRIC BUDGET FOR ENTIRE MODEL AT END OF TIME STEP    1, STRESS PERIOD  50
  ------------------------------------------------------------------------------

     CUMULATIVE VOLUMES      L**3       RATES FOR THIS TIME STEP      L**3/T
     ------------------                 ------------------------

           IN:                                      IN:
           ---                                      ---
             STORAGE =          21.0626               STORAGE =           5.4370
       CONSTANT HEAD =           0.0000         CONSTANT HEAD =           0.0000
       RIVER LEAKAGE =           0.0000         RIVER LEAKAGE =           0.0000
            RECHARGE =         907.3349              RECHARGE =           4.9871

            TOTAL IN =         928.3975              TOTAL IN =          10.4241

          OUT:                                     OUT:
          ----                                     ----
             STORAGE =         432.0085               STORAGE =           0.1682
       CONSTANT HEAD =         164.9128         CONSTANT HEAD =           3.3519
       RIVER LEAKAGE =         331.4762         RIVER LEAKAGE =           6.9040
            RECHARGE =           0.0000              RECHARGE =           0.0000

           TOTAL OUT =         928.3976             TOTAL OUT =          10.4242

            IN - OUT =      -6.1035E-05              IN - OUT =      -1.1063E-04

 PERCENT DISCREPANCY =          -0.00     PERCENT DISCREPANCY =          -0.00






         TIME SUMMARY AT END OF TIME STEP    1 IN STRESS PERIOD   50
                    SECONDS     MINUTES      HOURS       DAYS        YEARS
                    -----------------------------------------------------------
   TIME STEP LENGTH  86400.      1440.0      24.000      1.0000     2.73785E-03
 STRESS PERIOD TIME  86400.      1440.0      24.000      1.0000     2.73785E-03
         TOTAL TIME 4.32000E+06  72000.      1200.0      50.000     0.13689    
1
1
                            STRESS PERIOD NO.   51, LENGTH =   1.000000    
                            -----------------------------------------------

                              NUMBER OF TIME STEPS =     1

                               MULTIPLIER FOR DELT =     1.000

                            INITIAL TIME STEP SIZE =   1.000000    

 REUSING NON-PARAMETER RIVER REACHES FROM LAST STRESS PERIOD

      2 RIVER REACHES

                 RECHARGE =  1.265948E-03
 
 SOLVING FOR HEAD 

 OUTPUT CONTROL FOR STRESS PERIOD   51   TIME STEP    1
    SAVE HEAD FOR ALL LAYERS

 HEAD WILL BE SAVED ON UNIT   51 AT END OF TIME STEP    1, STRESS PERIOD   51
1
  VOLUMETRIC BUDGET FOR ENTIRE MODEL AT END OF TIME STEP    1, STRESS PERIOD  51
  ------------------------------------------------------------------------------

     CUMULATIVE VOLUMES      L**3       RATES FOR THIS TIME STEP      L**3/T
     ------------------                 ------------------------

           IN:                                      IN:
           ---                                      ---
             STORAGE =          21.0987               STORAGE =       3.6054E-02
       CONSTANT HEAD =           0.0000         CONSTANT HEAD =           0.0000
       RIVER LEAKAGE =           0.0000         RIVER LEAKAGE =           0.0000
            RECHARGE =         919.9944              RECHARGE =          12.6595

            TOTAL IN =         941.0931              TOTAL IN =          12.6955

          OUT:                                     OUT:
          ----                                     ----
             STORAGE =         434.3208               STORAGE =           2.3122
       CONSTANT HEAD =         168.2667         CONSTANT HEAD =           3.3539
       RIVER LEAKAGE =         338.5057         RIVER LEAKAGE =           7.0295
            RECHARGE =           0.0000              RECHARGE =           0.0000

           TOTAL OUT =         941.0933             TOTAL OUT =          12.6956

            IN - OUT =      -1.8311E-04              IN - OUT =      -1.0777E-04

 PERCENT DISCREPANCY =          -0.00     PERCENT DISCREPANCY =          -0.00






         TIME SUMMARY AT END OF TIME STEP    1 IN STRESS PERIOD   51
                    SECONDS     MINUTES      HOURS       DAYS        YEARS
                    -----------------------------------------------------------
   TIME STEP LENGTH  86400.      1440.0      24.000      1.0000     2.73785E-03
 STRESS PERIOD TIME  86400.      1440.0      24.000      1.0000     2.73785E-03
         TOTAL TIME 4.40640E+06  73440.      1224.0      51.000     0.13963    
1
1
                            STRESS PERIOD NO.   52, LENGTH =   1.000000    
                            -----------------------------------------------

                              NUMBER OF TIME STEPS =     1

                               MULTIPLIER FOR DELT =     1.000

                            INITIAL TIME STEP SIZE =   1.000000    

 REUSING NON-PARAMETER RIVER REACHES FROM LAST STRESS PERIOD

      2 RIVER REACHES

                 RECHARGE =  7.556034E-04
 
 SOLVING FOR HEAD 

 OUTPUT CONTROL FOR STRESS PERIOD   52   TIME STEP    1
    SAVE HEAD FOR ALL LAYERS

 HEAD WILL BE SAVED ON UNIT   51 AT END OF TIME STEP    1, STRESS PERIOD   52
1
  VOLUMETRIC BUDGET FOR ENTIRE MODEL AT END OF TIME STEP    1, STRESS PERIOD  52
  ------------------------------------------------------------------------------

     CUMULATIVE VOLUMES      L**3       RATES FOR THIS TIME STEP      L**3/T
     ------------------                 ------------------------

           IN:                                      IN:
           ---                                      ---
             STORAGE =          23.9570               STORAGE =           2.8583
       CONSTANT HEAD =           0.0000         CONSTANT HEAD =           0.0000
       RIVER LEAKAGE =           0.0000         RIVER LEAKAGE =           0.0000
            RECHARGE =         927.5504              RECHARGE =           7.5560

            TOTAL IN =         951.5074              TOTAL IN =          10.4143

          OUT:                                     OUT:
          ----                                     ----
             STORAGE =         434.4845               STORAGE =           0.1637
       CONSTANT HEAD =         171.6225         CONSTANT HEAD =           3.3558
       RIVER LEAKAGE =         345.4005         RIVER LEAKAGE =           6.8948
            RECHARGE =           0.0000              RECHARGE =           0.0000

           TOTAL OUT =         951.5074             TOTAL OUT =          10.4142

            IN - OUT =      -6.1035E-05              IN - OUT =       3.6240E-05

 PERCENT DISCREPANCY =          -0.00     PERCENT DISCREPANCY =           0.00






         TIME SUMMARY AT END OF TIME STEP    1 IN STRESS PERIOD   52
                    SECONDS     MINUTES      HOURS       DAYS        YEARS
                    -----------------------------------------------------------
   TIME STEP LENGTH  86400.      1440.0      24.000      1.0000     2.73785E-03
 STRESS PERIOD TIME  86400.      1440.0      24.000      1.0000     2.73785E-03
         TOTAL TIME 4.49280E+06  74880.      1248.0      52.000     0.14237    
1
1
                            STRESS PERIOD NO.   53, LENGTH =   1.000000    
                            -----------------------------------------------

                              NUMBER OF TIME STEPS =     1

                               MULTIPLIER FOR DELT =     1.000

                            INITIAL TIME STEP SIZE =   1.000000    

 REUSING NON-PARAMETER RIVER REACHES FROM LAST STRESS PERIOD

      2 RIVER REACHES

                 RECHARGE =  1.069828E-03
 
 SOLVING FOR HEAD 

 OUTPUT CONTROL FOR STRESS PERIOD   53   TIME STEP    1
    SAVE HEAD FOR ALL LAYERS

 HEAD WILL BE SAVED ON UNIT   51 AT END OF TIME STEP    1, STRESS PERIOD   53
1
  VOLUMETRIC BUDGET FOR ENTIRE MODEL AT END OF TIME STEP    1, STRESS PERIOD  53
  ------------------------------------------------------------------------------

     CUMULATIVE VOLUMES      L**3       RATES FOR THIS TIME STEP      L**3/T
     ------------------                 ------------------------

           IN:                                      IN:
           ---                                      ---
             STORAGE =          24.4557               STORAGE =           0.4988
       CONSTANT HEAD =           0.0000         CONSTANT HEAD =           0.0000
       RIVER LEAKAGE =           0.0000         RIVER LEAKAGE =           0.0000
            RECHARGE =         938.2487              RECHARGE =          10.6983

            TOTAL IN =         962.7045              TOTAL IN =          11.1971

          OUT:                                     OUT:
          ----                                     ----
             STORAGE =         435.4091               STORAGE =           0.9247
       CONSTANT HEAD =         174.9802         CONSTANT HEAD =           3.3577
       RIVER LEAKAGE =         352.3152         RIVER LEAKAGE =           6.9148
            RECHARGE =           0.0000              RECHARGE =           0.0000

           TOTAL OUT =         962.7046             TOTAL OUT =          11.1971

            IN - OUT =      -1.2207E-04              IN - OUT =      -5.9128E-05

 PERCENT DISCREPANCY =          -0.00     PERCENT DISCREPANCY =          -0.00






         TIME SUMMARY AT END OF TIME STEP    1 IN STRESS PERIOD   53
                    SECONDS     MINUTES      HOURS       DAYS        YEARS
                    -----------------------------------------------------------
   TIME STEP LENGTH  86400.      1440.0      24.000      1.0000     2.73785E-03
 STRESS PERIOD TIME  86400.      1440.0      24.000      1.0000     2.73785E-03
         TOTAL TIME 4.57920E+06  76320.      1272.0      53.000     0.14511    
1
1
                            STRESS PERIOD NO.   54, LENGTH =   1.000000    
                            -----------------------------------------------

                              NUMBER OF TIME STEPS =     1

                               MULTIPLIER FOR DELT =     1.000

                            INITIAL TIME STEP SIZE =   1.000000    

 REUSING NON-PARAMETER RIVER REACHES FROM LAST STRESS PERIOD

      2 RIVER REACHES

                 RECHARGE =  1.169828E-03
 
 SOLVING FOR HEAD 

 OUTPUT CONTROL FOR STRESS PERIOD   54   TIME STEP    1
    SAVE HEAD FOR ALL LAYERS

 HEAD WILL BE SAVED ON UNIT   51 AT END OF TIME STEP    1, STRESS PERIOD   54
1
  VOLUMETRIC BUDGET FOR ENTIRE MODEL AT END OF TIME STEP    1, STRESS PERIOD  54
  ------------------------------------------------------------------------------

     CUMULATIVE VOLUMES      L**3       RATES FOR THIS TIME STEP      L**3/T
     ------------------                 ------------------------

           IN:                                      IN:
           ---                                      ---
             STORAGE =          24.5585               STORAGE =           0.1028
       CONSTANT HEAD =           0.0000         CONSTANT HEAD =           0.0000
       RIVER LEAKAGE =           0.0000         RIVER LEAKAGE =           0.0000
            RECHARGE =         949.9470              RECHARGE =          11.6983

            TOTAL IN =         974.5055              TOTAL IN =          11.8010

          OUT:                                     OUT:
          ----                                     ----
             STORAGE =         436.9061               STORAGE =           1.4970
       CONSTANT HEAD =         178.3398         CONSTANT HEAD =           3.3596
       RIVER LEAKAGE =         359.2597         RIVER LEAKAGE =           6.9444
            RECHARGE =           0.0000              RECHARGE =           0.0000

           TOTAL OUT =         974.5055             TOTAL OUT =          11.8010

            IN - OUT =           0.0000              IN - OUT =       8.4877E-05

 PERCENT DISCREPANCY =           0.00     PERCENT DISCREPANCY =           0.00






         TIME SUMMARY AT END OF TIME STEP    1 IN STRESS PERIOD   54
                    SECONDS     MINUTES      HOURS       DAYS        YEARS
                    -----------------------------------------------------------
   TIME STEP LENGTH  86400.      1440.0      24.000      1.0000     2.73785E-03
 STRESS PERIOD TIME  86400.      1440.0      24.000      1.0000     2.73785E-03
         TOTAL TIME 4.66560E+06  77760.      1296.0      54.000     0.14784    
1
1
                            STRESS PERIOD NO.   55, LENGTH =   1.000000    
                            -----------------------------------------------

                              NUMBER OF TIME STEPS =     1

                               MULTIPLIER FOR DELT =     1.000

                            INITIAL TIME STEP SIZE =   1.000000    

 REUSING NON-PARAMETER RIVER REACHES FROM LAST STRESS PERIOD

      2 RIVER REACHES

                 RECHARGE =  1.462069E-03
 
 SOLVING FOR HEAD 

 OUTPUT CONTROL FOR STRESS PERIOD   55   TIME STEP    1
    SAVE HEAD FOR ALL LAYERS

 HEAD WILL BE SAVED ON UNIT   51 AT END OF TIME STEP    1, STRESS PERIOD   55
1
  VOLUMETRIC BUDGET FOR ENTIRE MODEL AT END OF TIME STEP    1, STRESS PERIOD  55
  ------------------------------------------------------------------------------

     CUMULATIVE VOLUMES      L**3       RATES FOR THIS TIME STEP      L**3/T
     ------------------                 ------------------------

           IN:                                      IN:
           ---                                      ---
             STORAGE =          24.5585               STORAGE =           0.0000
       CONSTANT HEAD =           0.0000         CONSTANT HEAD =           0.0000
       RIVER LEAKAGE =           0.0000         RIVER LEAKAGE =           0.0000
            RECHARGE =         964.5677              RECHARGE =          14.6207

            TOTAL IN =         989.1262              TOTAL IN =          14.6207

          OUT:                                     OUT:
          ----                                     ----
             STORAGE =         441.1076               STORAGE =           4.2015
       CONSTANT HEAD =         181.7013         CONSTANT HEAD =           3.3616
       RIVER LEAKAGE =         366.3174         RIVER LEAKAGE =           7.0577
            RECHARGE =           0.0000              RECHARGE =           0.0000

           TOTAL OUT =         989.1263             TOTAL OUT =          14.6208

            IN - OUT =      -1.2207E-04              IN - OUT =      -1.0872E-04

 PERCENT DISCREPANCY =          -0.00     PERCENT DISCREPANCY =          -0.00






         TIME SUMMARY AT END OF TIME STEP    1 IN STRESS PERIOD   55
                    SECONDS     MINUTES      HOURS       DAYS        YEARS
                    -----------------------------------------------------------
   TIME STEP LENGTH  86400.      1440.0      24.000      1.0000     2.73785E-03
 STRESS PERIOD TIME  86400.      1440.0      24.000      1.0000     2.73785E-03
         TOTAL TIME 4.75200E+06  79200.      1320.0      55.000     0.15058    
1
1
                            STRESS PERIOD NO.   56, LENGTH =   1.000000    
                            -----------------------------------------------

                              NUMBER OF TIME STEPS =     1

                               MULTIPLIER FOR DELT =     1.000

                            INITIAL TIME STEP SIZE =   1.000000    

 REUSING NON-PARAMETER RIVER REACHES FROM LAST STRESS PERIOD

      2 RIVER REACHES

                 RECHARGE =  5.159483E-04
 
 SOLVING FOR HEAD 

 OUTPUT CONTROL FOR STRESS PERIOD   56   TIME STEP    1
    SAVE HEAD FOR ALL LAYERS

 HEAD WILL BE SAVED ON UNIT   51 AT END OF TIME STEP    1, STRESS PERIOD   56
1
  VOLUMETRIC BUDGET FOR ENTIRE MODEL AT END OF TIME STEP    1, STRESS PERIOD  56
  ------------------------------------------------------------------------------

     CUMULATIVE VOLUMES      L**3       RATES FOR THIS TIME STEP      L**3/T
     ------------------                 ------------------------

           IN:                                      IN:
           ---                                      ---
             STORAGE =          29.7110               STORAGE =           5.1525
       CONSTANT HEAD =           0.0000         CONSTANT HEAD =           0.0000
       RIVER LEAKAGE =           0.0000         RIVER LEAKAGE =           0.0000
            RECHARGE =         969.7272              RECHARGE =           5.1595

            TOTAL IN =         999.4382              TOTAL IN =          10.3120

          OUT:                                     OUT:
          ----                                     ----
             STORAGE =         441.2636               STORAGE =           0.1560
       CONSTANT HEAD =         185.0647         CONSTANT HEAD =           3.3633
       RIVER LEAKAGE =         373.1100         RIVER LEAKAGE =           6.7926
            RECHARGE =           0.0000              RECHARGE =           0.0000

           TOTAL OUT =         999.4382             TOTAL OUT =          10.3119

            IN - OUT =           0.0000              IN - OUT =       1.1063E-04

 PERCENT DISCREPANCY =           0.00     PERCENT DISCREPANCY =           0.00






         TIME SUMMARY AT END OF TIME STEP    1 IN STRESS PERIOD   56
                    SECONDS     MINUTES      HOURS       DAYS        YEARS
                    -----------------------------------------------------------
   TIME STEP LENGTH  86400.      1440.0      24.000      1.0000     2.73785E-03
 STRESS PERIOD TIME  86400.      1440.0      24.000      1.0000     2.73785E-03
         TOTAL TIME 4.83840E+06  80640.      1344.0      56.000     0.15332    
1
1
                            STRESS PERIOD NO.   57, LENGTH =   1.000000    
                            -----------------------------------------------

                              NUMBER OF TIME STEPS =     1

                               MULTIPLIER FOR DELT =     1.000

                            INITIAL TIME STEP SIZE =   1.000000    

 REUSING NON-PARAMETER RIVER REACHES FROM LAST STRESS PERIOD

      2 RIVER REACHES

                 RECHARGE =  7.418104E-04
 
 SOLVING FOR HEAD 

 OUTPUT CONTROL FOR STRESS PERIOD   57   TIME STEP    1
    SAVE HEAD FOR ALL LAYERS

 HEAD WILL BE SAVED ON UNIT   51 AT END OF TIME STEP    1, STRESS PERIOD   57
1
  VOLUMETRIC BUDGET FOR ENTIRE MODEL AT END OF TIME STEP    1, STRESS PERIOD  57
  ------------------------------------------------------------------------------

     CUMULATIVE VOLUMES      L**3       RATES FOR THIS TIME STEP      L**3/T
     ------------------                 ------------------------

           IN:                                      IN:
           ---                                      ---
             STORAGE =          32.5245               STORAGE =           2.8134
       CONSTANT HEAD =           0.0000         CONSTANT HEAD =           0.0000
       RIVER LEAKAGE =           0.0000         RIVER LEAKAGE =           0.0000
            RECHARGE =         977.1453              RECHARGE =           7.4181

            TOTAL IN =        1009.6697              TOTAL IN =          10.2315

          OUT:                                     OUT:
          ----                                     ----
             STORAGE =         441.4159               STORAGE =           0.1523
       CONSTANT HEAD =         188.4297         CONSTANT HEAD =           3.3650
       RIVER LEAKAGE =         379.8242         RIVER LEAKAGE =           6.7142
            RECHARGE =           0.0000              RECHARGE =           0.0000

           TOTAL OUT =        1009.6697             TOTAL OUT =          10.2315

            IN - OUT =           0.0000              IN - OUT =      -1.0490E-05

 PERCENT DISCREPANCY =           0.00     PERCENT DISCREPANCY =          -0.00






         TIME SUMMARY AT END OF TIME STEP    1 IN STRESS PERIOD   57
                    SECONDS     MINUTES      HOURS       DAYS        YEARS
                    -----------------------------------------------------------
   TIME STEP LENGTH  86400.      1440.0      24.000      1.0000     2.73785E-03
 STRESS PERIOD TIME  86400.      1440.0      24.000      1.0000     2.73785E-03
         TOTAL TIME 4.92480E+06  82080.      1368.0      57.000     0.15606    
1
1
                            STRESS PERIOD NO.   58, LENGTH =   1.000000    
                            -----------------------------------------------

                              NUMBER OF TIME STEPS =     1

                               MULTIPLIER FOR DELT =     1.000

                            INITIAL TIME STEP SIZE =   1.000000    

 REUSING NON-PARAMETER RIVER REACHES FROM LAST STRESS PERIOD

      2 RIVER REACHES

                 RECHARGE =  9.836206E-04
 
 SOLVING FOR HEAD 

 OUTPUT CONTROL FOR STRESS PERIOD   58   TIME STEP    1
    SAVE HEAD FOR ALL LAYERS

 HEAD WILL BE SAVED ON UNIT   51 AT END OF TIME STEP    1, STRESS PERIOD   58
1
  VOLUMETRIC BUDGET FOR ENTIRE MODEL AT END OF TIME STEP    1, STRESS PERIOD  58
  ------------------------------------------------------------------------------

     CUMULATIVE VOLUMES      L**3       RATES FOR THIS TIME STEP      L**3/T
     ------------------                 ------------------------

           IN:                                      IN:
           ---                                      ---
             STORAGE =          33.2261               STORAGE =           0.7017
       CONSTANT HEAD =           0.0000         CONSTANT HEAD =           0.0000
       RIVER LEAKAGE =           0.0000         RIVER LEAKAGE =           0.0000
            RECHARGE =         986.9814              RECHARGE =           9.8362

            TOTAL IN =        1020.2076              TOTAL IN =          10.5379

          OUT:                                     OUT:
          ----                                     ----
             STORAGE =         441.8584               STORAGE =           0.4425
       CONSTANT HEAD =         191.7964         CONSTANT HEAD =           3.3667
       RIVER LEAKAGE =         386.5528         RIVER LEAKAGE =           6.7286
            RECHARGE =           0.0000              RECHARGE =           0.0000

           TOTAL OUT =        1020.2076             TOTAL OUT =          10.5379

            IN - OUT =           0.0000              IN - OUT =       1.1444E-05

 PERCENT DISCREPANCY =           0.00     PERCENT DISCREPANCY =           0.00






         TIME SUMMARY AT END OF TIME STEP    1 IN STRESS PERIOD   58
                    SECONDS     MINUTES      HOURS       DAYS        YEARS
                    -----------------------------------------------------------
   TIME STEP LENGTH  86400.      1440.0      24.000      1.0000     2.73785E-03
 STRESS PERIOD TIME  86400.      1440.0      24.000      1.0000     2.73785E-03
         TOTAL TIME 5.01120E+06  83520.      1392.0      58.000     0.15880    
1
1
                            STRESS PERIOD NO.   59, LENGTH =   1.000000    
                            -----------------------------------------------

                              NUMBER OF TIME STEPS =     1

                               MULTIPLIER FOR DELT =     1.000

                            INITIAL TIME STEP SIZE =   1.000000    

 REUSING NON-PARAMETER RIVER REACHES FROM LAST STRESS PERIOD

      2 RIVER REACHES

                 RECHARGE =  7.387931E-04
 
 SOLVING FOR HEAD 

 OUTPUT CONTROL FOR STRESS PERIOD   59   TIME STEP    1
    SAVE HEAD FOR ALL LAYERS

 HEAD WILL BE SAVED ON UNIT   51 AT END OF TIME STEP    1, STRESS PERIOD   59
1
  VOLUMETRIC BUDGET FOR ENTIRE MODEL AT END OF TIME STEP    1, STRESS PERIOD  59
  ------------------------------------------------------------------------------

     CUMULATIVE VOLUMES      L**3       RATES FOR THIS TIME STEP      L**3/T
     ------------------                 ------------------------

           IN:                                      IN:
           ---                                      ---
             STORAGE =          35.9866               STORAGE =           2.7605
       CONSTANT HEAD =           0.0000         CONSTANT HEAD =           0.0000
       RIVER LEAKAGE =           0.0000         RIVER LEAKAGE =           0.0000
            RECHARGE =         994.3694              RECHARGE =           7.3879

            TOTAL IN =        1030.3561              TOTAL IN =          10.1485

          OUT:                                     OUT:
          ----                                     ----
             STORAGE =         442.0051               STORAGE =           0.1467
       CONSTANT HEAD =         195.1647         CONSTANT HEAD =           3.3683
       RIVER LEAKAGE =         393.1864         RIVER LEAKAGE =           6.6336
            RECHARGE =           0.0000              RECHARGE =           0.0000

           TOTAL OUT =        1030.3562             TOTAL OUT =          10.1487

            IN - OUT =      -1.2207E-04              IN - OUT =      -1.9932E-04

 PERCENT DISCREPANCY =          -0.00     PERCENT DISCREPANCY =          -0.00






         TIME SUMMARY AT END OF TIME STEP    1 IN STRESS PERIOD   59
                    SECONDS     MINUTES      HOURS       DAYS        YEARS
                    -----------------------------------------------------------
   TIME STEP LENGTH  86400.      1440.0      24.000      1.0000     2.73785E-03
 STRESS PERIOD TIME  86400.      1440.0      24.000      1.0000     2.73785E-03
         TOTAL TIME 5.09760E+06  84960.      1416.0      59.000     0.16153    
1
1
                            STRESS PERIOD NO.   60, LENGTH =   1.000000    
                            -----------------------------------------------

                              NUMBER OF TIME STEPS =     1

                               MULTIPLIER FOR DELT =     1.000

                            INITIAL TIME STEP SIZE =   1.000000    

 REUSING NON-PARAMETER RIVER REACHES FROM LAST STRESS PERIOD

      2 RIVER REACHES

                 RECHARGE =  1.354741E-03
 
 SOLVING FOR HEAD 

 OUTPUT CONTROL FOR STRESS PERIOD   60   TIME STEP    1
    SAVE HEAD FOR ALL LAYERS

 HEAD WILL BE SAVED ON UNIT   51 AT END OF TIME STEP    1, STRESS PERIOD   60
1
  VOLUMETRIC BUDGET FOR ENTIRE MODEL AT END OF TIME STEP    1, STRESS PERIOD  60
  ------------------------------------------------------------------------------

     CUMULATIVE VOLUMES      L**3       RATES FOR THIS TIME STEP      L**3/T
     ------------------                 ------------------------

           IN:                                      IN:
           ---                                      ---
             STORAGE =          35.9866               STORAGE =           0.0000
       CONSTANT HEAD =           0.0000         CONSTANT HEAD =           0.0000
       RIVER LEAKAGE =           0.0000         RIVER LEAKAGE =           0.0000
            RECHARGE =        1007.9168              RECHARGE =          13.5474

            TOTAL IN =        1043.9034              TOTAL IN =          13.5474

          OUT:                                     OUT:
          ----                                     ----
             STORAGE =         445.4002               STORAGE =           3.3951
       CONSTANT HEAD =         198.5348         CONSTANT HEAD =           3.3701
       RIVER LEAKAGE =         399.9687         RIVER LEAKAGE =           6.7822
            RECHARGE =           0.0000              RECHARGE =           0.0000

           TOTAL OUT =        1043.9037             TOTAL OUT =          13.5474

            IN - OUT =      -2.4414E-04              IN - OUT =       6.6757E-06

 PERCENT DISCREPANCY =          -0.00     PERCENT DISCREPANCY =           0.00






         TIME SUMMARY AT END OF TIME STEP    1 IN STRESS PERIOD   60
                    SECONDS     MINUTES      HOURS       DAYS        YEARS
                    -----------------------------------------------------------
   TIME STEP LENGTH  86400.      1440.0      24.000      1.0000     2.73785E-03
 STRESS PERIOD TIME  86400.      1440.0      24.000      1.0000     2.73785E-03
         TOTAL TIME 5.18400E+06  86400.      1440.0      60.000     0.16427    
1
1
                            STRESS PERIOD NO.   61, LENGTH =   1.000000    
                            -----------------------------------------------

                              NUMBER OF TIME STEPS =     1

                               MULTIPLIER FOR DELT =     1.000

                            INITIAL TIME STEP SIZE =   1.000000    

 REUSING NON-PARAMETER RIVER REACHES FROM LAST STRESS PERIOD

      2 RIVER REACHES

                 RECHARGE = -2.333333E-04
 
 SOLVING FOR HEAD 

 OUTPUT CONTROL FOR STRESS PERIOD   61   TIME STEP    1
    SAVE HEAD FOR ALL LAYERS

 HEAD WILL BE SAVED ON UNIT   51 AT END OF TIME STEP    1, STRESS PERIOD   61
1
  VOLUMETRIC BUDGET FOR ENTIRE MODEL AT END OF TIME STEP    1, STRESS PERIOD  61
  ------------------------------------------------------------------------------

     CUMULATIVE VOLUMES      L**3       RATES FOR THIS TIME STEP      L**3/T
     ------------------                 ------------------------

           IN:                                      IN:
           ---                                      ---
             STORAGE =          48.1301               STORAGE =          12.1435
       CONSTANT HEAD =           0.0000         CONSTANT HEAD =           0.0000
       RIVER LEAKAGE =           0.0000         RIVER LEAKAGE =           0.0000
            RECHARGE =        1007.9168              RECHARGE =           0.0000

            TOTAL IN =        1056.0469              TOTAL IN =          12.1435

          OUT:                                     OUT:
          ----                                     ----
             STORAGE =         445.5377               STORAGE =           0.1375
       CONSTANT HEAD =         201.9062         CONSTANT HEAD =           3.3714
       RIVER LEAKAGE =         406.2701         RIVER LEAKAGE =           6.3014
            RECHARGE =           2.3333              RECHARGE =           2.3333

           TOTAL OUT =        1056.0474             TOTAL OUT =          12.1436

            IN - OUT =      -4.8828E-04              IN - OUT =      -1.8406E-04

 PERCENT DISCREPANCY =          -0.00     PERCENT DISCREPANCY =          -0.00






         TIME SUMMARY AT END OF TIME STEP    1 IN STRESS PERIOD   61
                    SECONDS     MINUTES      HOURS       DAYS        YEARS
                    -----------------------------------------------------------
   TIME STEP LENGTH  86400.      1440.0      24.000      1.0000     2.73785E-03
 STRESS PERIOD TIME  86400.      1440.0      24.000      1.0000     2.73785E-03
         TOTAL TIME 5.27040E+06  87840.      1464.0      61.000     0.16701    
1
1
                            STRESS PERIOD NO.   62, LENGTH =   1.000000    
                            -----------------------------------------------

                              NUMBER OF TIME STEPS =     1

                               MULTIPLIER FOR DELT =     1.000

                            INITIAL TIME STEP SIZE =   1.000000    

 REUSING NON-PARAMETER RIVER REACHES FROM LAST STRESS PERIOD

      2 RIVER REACHES

                 RECHARGE =  2.192241E-03
 
 SOLVING FOR HEAD 

 OUTPUT CONTROL FOR STRESS PERIOD   62   TIME STEP    1
    SAVE HEAD FOR ALL LAYERS

 HEAD WILL BE SAVED ON UNIT   51 AT END OF TIME STEP    1, STRESS PERIOD   62
1
  VOLUMETRIC BUDGET FOR ENTIRE MODEL AT END OF TIME STEP    1, STRESS PERIOD  62
  ------------------------------------------------------------------------------

     CUMULATIVE VOLUMES      L**3       RATES FOR THIS TIME STEP      L**3/T
     ------------------                 ------------------------

           IN:                                      IN:
           ---                                      ---
             STORAGE =          48.1301               STORAGE =           0.0000
       CONSTANT HEAD =           0.0000         CONSTANT HEAD =           0.0000
       RIVER LEAKAGE =           0.0000         RIVER LEAKAGE =           0.0000
            RECHARGE =        1029.8392              RECHARGE =          21.9224

            TOTAL IN =        1077.9694              TOTAL IN =          21.9224

          OUT:                                     OUT:
          ----                                     ----
             STORAGE =         457.2276               STORAGE =          11.6899
       CONSTANT HEAD =         205.2795         CONSTANT HEAD =           3.3733
       RIVER LEAKAGE =         413.1295         RIVER LEAKAGE =           6.8594
            RECHARGE =           2.3333              RECHARGE =           0.0000

           TOTAL OUT =        1077.9700             TOTAL OUT =          21.9226

            IN - OUT =      -6.1035E-04              IN - OUT =      -1.6975E-04

 PERCENT DISCREPANCY =          -0.00     PERCENT DISCREPANCY =          -0.00






         TIME SUMMARY AT END OF TIME STEP    1 IN STRESS PERIOD   62
                    SECONDS     MINUTES      HOURS       DAYS        YEARS
                    -----------------------------------------------------------
   TIME STEP LENGTH  86400.      1440.0      24.000      1.0000     2.73785E-03
 STRESS PERIOD TIME  86400.      1440.0      24.000      1.0000     2.73785E-03
         TOTAL TIME 5.35680E+06  89280.      1488.0      62.000     0.16975    
1
1
                            STRESS PERIOD NO.   63, LENGTH =   1.000000    
                            -----------------------------------------------

                              NUMBER OF TIME STEPS =     1

                               MULTIPLIER FOR DELT =     1.000

                            INITIAL TIME STEP SIZE =   1.000000    

 REUSING NON-PARAMETER RIVER REACHES FROM LAST STRESS PERIOD

      2 RIVER REACHES

                 RECHARGE =  1.764224E-03
 
 SOLVING FOR HEAD 

 OUTPUT CONTROL FOR STRESS PERIOD   63   TIME STEP    1
    SAVE HEAD FOR ALL LAYERS

 HEAD WILL BE SAVED ON UNIT   51 AT END OF TIME STEP    1, STRESS PERIOD   63
1
  VOLUMETRIC BUDGET FOR ENTIRE MODEL AT END OF TIME STEP    1, STRESS PERIOD  63
  ------------------------------------------------------------------------------

     CUMULATIVE VOLUMES      L**3       RATES FOR THIS TIME STEP      L**3/T
     ------------------                 ------------------------

           IN:                                      IN:
           ---                                      ---
             STORAGE =          48.1301               STORAGE =           0.0000
       CONSTANT HEAD =           0.0000         CONSTANT HEAD =           0.0000
       RIVER LEAKAGE =           0.0000         RIVER LEAKAGE =           0.0000
            RECHARGE =        1047.4814              RECHARGE =          17.6422

            TOTAL IN =        1095.6116              TOTAL IN =          17.6422

          OUT:                                     OUT:
          ----                                     ----
             STORAGE =         464.4802               STORAGE =           7.2526
       CONSTANT HEAD =         208.6548         CONSTANT HEAD =           3.3753
       RIVER LEAKAGE =         420.1436         RIVER LEAKAGE =           7.0141
            RECHARGE =           2.3333              RECHARGE =           0.0000

           TOTAL OUT =        1095.6121             TOTAL OUT =          17.6420

            IN - OUT =      -4.8828E-04              IN - OUT =       1.9836E-04

 PERCENT DISCREPANCY =          -0.00     PERCENT DISCREPANCY =           0.00






         TIME SUMMARY AT END OF TIME STEP    1 IN STRESS PERIOD   63
                    SECONDS     MINUTES      HOURS       DAYS        YEARS
                    -----------------------------------------------------------
   TIME STEP LENGTH  86400.      1440.0      24.000      1.0000     2.73785E-03
 STRESS PERIOD TIME  86400.      1440.0      24.000      1.0000     2.73785E-03
         TOTAL TIME 5.44320E+06  90720.      1512.0      63.000     0.17248    
1
1
                            STRESS PERIOD NO.   64, LENGTH =   1.000000    
                            -----------------------------------------------

                              NUMBER OF TIME STEPS =     1

                               MULTIPLIER FOR DELT =     1.000

                            INITIAL TIME STEP SIZE =   1.000000    

 REUSING NON-PARAMETER RIVER REACHES FROM LAST STRESS PERIOD

      2 RIVER REACHES

                 RECHARGE =  2.354741E-03
 
 SOLVING FOR HEAD 

 OUTPUT CONTROL FOR STRESS PERIOD   64   TIME STEP    1
    SAVE HEAD FOR ALL LAYERS

 HEAD WILL BE SAVED ON UNIT   51 AT END OF TIME STEP    1, STRESS PERIOD   64
1
  VOLUMETRIC BUDGET FOR ENTIRE MODEL AT END OF TIME STEP    1, STRESS PERIOD  64
  ------------------------------------------------------------------------------

     CUMULATIVE VOLUMES      L**3       RATES FOR THIS TIME STEP      L**3/T
     ------------------                 ------------------------

           IN:                                      IN:
           ---                                      ---
             STORAGE =          48.1301               STORAGE =           0.0000
       CONSTANT HEAD =           0.0000         CONSTANT HEAD =           0.0000
       RIVER LEAKAGE =           0.0000         RIVER LEAKAGE =           0.0000
            RECHARGE =        1071.0288              RECHARGE =          23.5474

            TOTAL IN =        1119.1589              TOTAL IN =          23.5474

          OUT:                                     OUT:
          ----                                     ----
             STORAGE =         477.3008               STORAGE =          12.8206
       CONSTANT HEAD =         212.0323         CONSTANT HEAD =           3.3775
       RIVER LEAKAGE =         427.4929         RIVER LEAKAGE =           7.3493
            RECHARGE =           2.3333              RECHARGE =           0.0000

           TOTAL OUT =        1119.1594             TOTAL OUT =          23.5474

            IN - OUT =      -4.8828E-04              IN - OUT =       2.4796E-05

 PERCENT DISCREPANCY =          -0.00     PERCENT DISCREPANCY =           0.00






         TIME SUMMARY AT END OF TIME STEP    1 IN STRESS PERIOD   64
                    SECONDS     MINUTES      HOURS       DAYS        YEARS
                    -----------------------------------------------------------
   TIME STEP LENGTH  86400.      1440.0      24.000      1.0000     2.73785E-03
 STRESS PERIOD TIME  86400.      1440.0      24.000      1.0000     2.73785E-03
         TOTAL TIME 5.52960E+06  92160.      1536.0      64.000     0.17522    
1
1
                            STRESS PERIOD NO.   65, LENGTH =   1.000000    
                            -----------------------------------------------

                              NUMBER OF TIME STEPS =     1

                               MULTIPLIER FOR DELT =     1.000

                            INITIAL TIME STEP SIZE =   1.000000    

 REUSING NON-PARAMETER RIVER REACHES FROM LAST STRESS PERIOD

      2 RIVER REACHES

                 RECHARGE =  1.294397E-03
 
 SOLVING FOR HEAD 

 OUTPUT CONTROL FOR STRESS PERIOD   65   TIME STEP    1
    SAVE HEAD FOR ALL LAYERS

 HEAD WILL BE SAVED ON UNIT   51 AT END OF TIME STEP    1, STRESS PERIOD   65
1
  VOLUMETRIC BUDGET FOR ENTIRE MODEL AT END OF TIME STEP    1, STRESS PERIOD  65
  ------------------------------------------------------------------------------

     CUMULATIVE VOLUMES      L**3       RATES FOR THIS TIME STEP      L**3/T
     ------------------                 ------------------------

           IN:                                      IN:
           ---                                      ---
             STORAGE =          48.2532               STORAGE =           0.1231
       CONSTANT HEAD =           0.0000         CONSTANT HEAD =           0.0000
       RIVER LEAKAGE =           0.0000         RIVER LEAKAGE =           0.0000
            RECHARGE =        1083.9728              RECHARGE =          12.9440

            TOTAL IN =        1132.2260              TOTAL IN =          13.0671

          OUT:                                     OUT:
          ----                                     ----
             STORAGE =         479.7758               STORAGE =           2.4750
       CONSTANT HEAD =         215.4118         CONSTANT HEAD =           3.3796
       RIVER LEAKAGE =         434.7052         RIVER LEAKAGE =           7.2123
            RECHARGE =           2.3333              RECHARGE =           0.0000

           TOTAL OUT =        1132.2262             TOTAL OUT =          13.0668

            IN - OUT =      -2.4414E-04              IN - OUT =       2.4033E-04

 PERCENT DISCREPANCY =          -0.00     PERCENT DISCREPANCY =           0.00






         TIME SUMMARY AT END OF TIME STEP    1 IN STRESS PERIOD   65
                    SECONDS     MINUTES      HOURS       DAYS        YEARS
                    -----------------------------------------------------------
   TIME STEP LENGTH  86400.      1440.0      24.000      1.0000     2.73785E-03
 STRESS PERIOD TIME  86400.      1440.0      24.000      1.0000     2.73785E-03
         TOTAL TIME 5.61600E+06  93600.      1560.0      65.000     0.17796    
1
1
                            STRESS PERIOD NO.   66, LENGTH =   1.000000    
                            -----------------------------------------------

                              NUMBER OF TIME STEPS =     1

                               MULTIPLIER FOR DELT =     1.000

                            INITIAL TIME STEP SIZE =   1.000000    

 REUSING NON-PARAMETER RIVER REACHES FROM LAST STRESS PERIOD

      2 RIVER REACHES

                 RECHARGE =  4.814655E-04
 
 SOLVING FOR HEAD 

 OUTPUT CONTROL FOR STRESS PERIOD   66   TIME STEP    1
    SAVE HEAD FOR ALL LAYERS

 HEAD WILL BE SAVED ON UNIT   51 AT END OF TIME STEP    1, STRESS PERIOD   66
1
  VOLUMETRIC BUDGET FOR ENTIRE MODEL AT END OF TIME STEP    1, STRESS PERIOD  66
  ------------------------------------------------------------------------------

     CUMULATIVE VOLUMES      L**3       RATES FOR THIS TIME STEP      L**3/T
     ------------------                 ------------------------

           IN:                                      IN:
           ---                                      ---
             STORAGE =          53.8510               STORAGE =           5.5978
       CONSTANT HEAD =           0.0000         CONSTANT HEAD =           0.0000
       RIVER LEAKAGE =           0.0000         RIVER LEAKAGE =           0.0000
            RECHARGE =        1088.7875              RECHARGE =           4.8147

            TOTAL IN =        1142.6384              TOTAL IN =          10.4124

          OUT:                                     OUT:
          ----                                     ----
             STORAGE =         479.9216               STORAGE =           0.1457
       CONSTANT HEAD =         218.7931         CONSTANT HEAD =           3.3813
       RIVER LEAKAGE =         441.5906         RIVER LEAKAGE =           6.8854
            RECHARGE =           2.3333              RECHARGE =           0.0000

           TOTAL OUT =        1142.6387             TOTAL OUT =          10.4124

            IN - OUT =      -2.4414E-04              IN - OUT =       5.7220E-05

 PERCENT DISCREPANCY =          -0.00     PERCENT DISCREPANCY =           0.00






         TIME SUMMARY AT END OF TIME STEP    1 IN STRESS PERIOD   66
                    SECONDS     MINUTES      HOURS       DAYS        YEARS
                    -----------------------------------------------------------
   TIME STEP LENGTH  86400.      1440.0      24.000      1.0000     2.73785E-03
 STRESS PERIOD TIME  86400.      1440.0      24.000      1.0000     2.73785E-03
         TOTAL TIME 5.70240E+06  95040.      1584.0      66.000     0.18070    
1
1
                            STRESS PERIOD NO.   67, LENGTH =   1.000000    
                            -----------------------------------------------

                              NUMBER OF TIME STEPS =     1

                               MULTIPLIER FOR DELT =     1.000

                            INITIAL TIME STEP SIZE =   1.000000    

 REUSING NON-PARAMETER RIVER REACHES FROM LAST STRESS PERIOD

      2 RIVER REACHES

                 RECHARGE =  7.262931E-04
 
 SOLVING FOR HEAD 

 OUTPUT CONTROL FOR STRESS PERIOD   67   TIME STEP    1
    SAVE HEAD FOR ALL LAYERS

 HEAD WILL BE SAVED ON UNIT   51 AT END OF TIME STEP    1, STRESS PERIOD   67
1
  VOLUMETRIC BUDGET FOR ENTIRE MODEL AT END OF TIME STEP    1, STRESS PERIOD  67
  ------------------------------------------------------------------------------

     CUMULATIVE VOLUMES      L**3       RATES FOR THIS TIME STEP      L**3/T
     ------------------                 ------------------------

           IN:                                      IN:
           ---                                      ---
             STORAGE =          56.8914               STORAGE =           3.0404
       CONSTANT HEAD =           0.0000         CONSTANT HEAD =           0.0000
       RIVER LEAKAGE =           0.0000         RIVER LEAKAGE =           0.0000
            RECHARGE =        1096.0504              RECHARGE =           7.2629

            TOTAL IN =        1152.9418              TOTAL IN =          10.3033

          OUT:                                     OUT:
          ----                                     ----
             STORAGE =         480.0636               STORAGE =           0.1420
       CONSTANT HEAD =         222.1760         CONSTANT HEAD =           3.3829
       RIVER LEAKAGE =         448.3687         RIVER LEAKAGE =           6.7782
            RECHARGE =           2.3333              RECHARGE =           0.0000

           TOTAL OUT =        1152.9417             TOTAL OUT =          10.3031

            IN - OUT =       1.2207E-04              IN - OUT =       2.5654E-04

 PERCENT DISCREPANCY =           0.00     PERCENT DISCREPANCY =           0.00






         TIME SUMMARY AT END OF TIME STEP    1 IN STRESS PERIOD   67
                    SECONDS     MINUTES      HOURS       DAYS        YEARS
                    -----------------------------------------------------------
   TIME STEP LENGTH  86400.      1440.0      24.000      1.0000     2.73785E-03
 STRESS PERIOD TIME  86400.      1440.0      24.000      1.0000     2.73785E-03
         TOTAL TIME 5.78880E+06  96480.      1608.0      67.000     0.18344    
1
1
                            STRESS PERIOD NO.   68, LENGTH =   1.000000    
                            -----------------------------------------------

                              NUMBER OF TIME STEPS =     1

                               MULTIPLIER FOR DELT =     1.000

                            INITIAL TIME STEP SIZE =   1.000000    

 REUSING NON-PARAMETER RIVER REACHES FROM LAST STRESS PERIOD

      2 RIVER REACHES

                 RECHARGE =  1.298276E-03
 
 SOLVING FOR HEAD 

 OUTPUT CONTROL FOR STRESS PERIOD   68   TIME STEP    1
    SAVE HEAD FOR ALL LAYERS

 HEAD WILL BE SAVED ON UNIT   51 AT END OF TIME STEP    1, STRESS PERIOD   68
1
  VOLUMETRIC BUDGET FOR ENTIRE MODEL AT END OF TIME STEP    1, STRESS PERIOD  68
  ------------------------------------------------------------------------------

     CUMULATIVE VOLUMES      L**3       RATES FOR THIS TIME STEP      L**3/T
     ------------------                 ------------------------

           IN:                                      IN:
           ---                                      ---
             STORAGE =          56.8914               STORAGE =           0.0000
       CONSTANT HEAD =           0.0000         CONSTANT HEAD =           0.0000
       RIVER LEAKAGE =           0.0000         RIVER LEAKAGE =           0.0000
            RECHARGE =        1109.0332              RECHARGE =          12.9828

            TOTAL IN =        1165.9246              TOTAL IN =          12.9828

          OUT:                                     OUT:
          ----                                     ----
             STORAGE =         482.7709               STORAGE =           2.7073
       CONSTANT HEAD =         225.5606         CONSTANT HEAD =           3.3847
       RIVER LEAKAGE =         455.2596         RIVER LEAKAGE =           6.8909
            RECHARGE =           2.3333              RECHARGE =           0.0000

           TOTAL OUT =        1165.9246             TOTAL OUT =          12.9828

            IN - OUT =           0.0000              IN - OUT =      -7.1526E-05

 PERCENT DISCREPANCY =           0.00     PERCENT DISCREPANCY =          -0.00






         TIME SUMMARY AT END OF TIME STEP    1 IN STRESS PERIOD   68
                    SECONDS     MINUTES      HOURS       DAYS        YEARS
                    -----------------------------------------------------------
   TIME STEP LENGTH  86400.      1440.0      24.000      1.0000     2.73785E-03
 STRESS PERIOD TIME  86400.      1440.0      24.000      1.0000     2.73785E-03
         TOTAL TIME 5.87520E+06  97920.      1632.0      68.000     0.18617    
1
1
                            STRESS PERIOD NO.   69, LENGTH =   1.000000    
                            -----------------------------------------------

                              NUMBER OF TIME STEPS =     1

                               MULTIPLIER FOR DELT =     1.000

                            INITIAL TIME STEP SIZE =   1.000000    

 REUSING NON-PARAMETER RIVER REACHES FROM LAST STRESS PERIOD

      2 RIVER REACHES

                 RECHARGE =  8.219827E-04
 
 SOLVING FOR HEAD 

 OUTPUT CONTROL FOR STRESS PERIOD   69   TIME STEP    1
    SAVE HEAD FOR ALL LAYERS

 HEAD WILL BE SAVED ON UNIT   51 AT END OF TIME STEP    1, STRESS PERIOD   69
1
  VOLUMETRIC BUDGET FOR ENTIRE MODEL AT END OF TIME STEP    1, STRESS PERIOD  69
  ------------------------------------------------------------------------------

     CUMULATIVE VOLUMES      L**3       RATES FOR THIS TIME STEP      L**3/T
     ------------------                 ------------------------

           IN:                                      IN:
           ---                                      ---
             STORAGE =          58.9722               STORAGE =           2.0808
       CONSTANT HEAD =           0.0000         CONSTANT HEAD =           0.0000
       RIVER LEAKAGE =           0.0000         RIVER LEAKAGE =           0.0000
            RECHARGE =        1117.2531              RECHARGE =           8.2198

            TOTAL IN =        1176.2252              TOTAL IN =          10.3007

          OUT:                                     OUT:
          ----                                     ----
             STORAGE =         482.9096               STORAGE =           0.1387
       CONSTANT HEAD =         228.9469         CONSTANT HEAD =           3.3863
       RIVER LEAKAGE =         462.0352         RIVER LEAKAGE =           6.7755
            RECHARGE =           2.3333              RECHARGE =           0.0000

           TOTAL OUT =        1176.2251             TOTAL OUT =          10.3006

            IN - OUT =       1.2207E-04              IN - OUT =       1.0872E-04

 PERCENT DISCREPANCY =           0.00     PERCENT DISCREPANCY =           0.00






         TIME SUMMARY AT END OF TIME STEP    1 IN STRESS PERIOD   69
                    SECONDS     MINUTES      HOURS       DAYS        YEARS
                    -----------------------------------------------------------
   TIME STEP LENGTH  86400.      1440.0      24.000      1.0000     2.73785E-03
 STRESS PERIOD TIME  86400.      1440.0      24.000      1.0000     2.73785E-03
         TOTAL TIME 5.96160E+06  99360.      1656.0      69.000     0.18891    
1
1
                            STRESS PERIOD NO.   70, LENGTH =   1.000000    
                            -----------------------------------------------

                              NUMBER OF TIME STEPS =     1

                               MULTIPLIER FOR DELT =     1.000

                            INITIAL TIME STEP SIZE =   1.000000    

 REUSING NON-PARAMETER RIVER REACHES FROM LAST STRESS PERIOD

      2 RIVER REACHES

                 RECHARGE =  6.987069E-04
 
 SOLVING FOR HEAD 

 OUTPUT CONTROL FOR STRESS PERIOD   70   TIME STEP    1
    SAVE HEAD FOR ALL LAYERS

 HEAD WILL BE SAVED ON UNIT   51 AT END OF TIME STEP    1, STRESS PERIOD   70
1
  VOLUMETRIC BUDGET FOR ENTIRE MODEL AT END OF TIME STEP    1, STRESS PERIOD  70
  ------------------------------------------------------------------------------

     CUMULATIVE VOLUMES      L**3       RATES FOR THIS TIME STEP      L**3/T
     ------------------                 ------------------------

           IN:                                      IN:
           ---                                      ---
             STORAGE =          62.1696               STORAGE =           3.1974
       CONSTANT HEAD =           0.0000         CONSTANT HEAD =           0.0000
       RIVER LEAKAGE =           0.0000         RIVER LEAKAGE =           0.0000
            RECHARGE =        1124.2401              RECHARGE =           6.9871

            TOTAL IN =        1186.4097              TOTAL IN =          10.1845

          OUT:                                     OUT:
          ----                                     ----
             STORAGE =         483.0446               STORAGE =           0.1350
       CONSTANT HEAD =         232.3348         CONSTANT HEAD =           3.3878
       RIVER LEAKAGE =         468.6968         RIVER LEAKAGE =           6.6616
            RECHARGE =           2.3333              RECHARGE =           0.0000

           TOTAL OUT =        1186.4095             TOTAL OUT =          10.1845

            IN - OUT =       1.2207E-04              IN - OUT =       1.1444E-05

 PERCENT DISCREPANCY =           0.00     PERCENT DISCREPANCY =           0.00






         TIME SUMMARY AT END OF TIME STEP    1 IN STRESS PERIOD   70
                    SECONDS     MINUTES      HOURS       DAYS        YEARS
                    -----------------------------------------------------------
   TIME STEP LENGTH  86400.      1440.0      24.000      1.0000     2.73785E-03
 STRESS PERIOD TIME  86400.      1440.0      24.000      1.0000     2.73785E-03
         TOTAL TIME 6.04800E+06 1.00800E+05  1680.0      70.000     0.19165    
1
1
                            STRESS PERIOD NO.   71, LENGTH =   1.000000    
                            -----------------------------------------------

                              NUMBER OF TIME STEPS =     1

                               MULTIPLIER FOR DELT =     1.000

                            INITIAL TIME STEP SIZE =   1.000000    

 REUSING NON-PARAMETER RIVER REACHES FROM LAST STRESS PERIOD

      2 RIVER REACHES

                 RECHARGE =  8.642242E-04
 
 SOLVING FOR HEAD 

 OUTPUT CONTROL FOR STRESS PERIOD   71   TIME STEP    1
    SAVE HEAD FOR ALL LAYERS

 HEAD WILL BE SAVED ON UNIT   51 AT END OF TIME STEP    1, STRESS PERIOD   71
1
  VOLUMETRIC BUDGET FOR ENTIRE MODEL AT END OF TIME STEP    1, STRESS PERIOD  71
  ------------------------------------------------------------------------------

     CUMULATIVE VOLUMES      L**3       RATES FOR THIS TIME STEP      L**3/T
     ------------------                 ------------------------

           IN:                                      IN:
           ---                                      ---
             STORAGE =          63.6871               STORAGE =           1.5175
       CONSTANT HEAD =           0.0000         CONSTANT HEAD =           0.0000
       RIVER LEAKAGE =           0.0000         RIVER LEAKAGE =           0.0000
            RECHARGE =        1132.8823              RECHARGE =           8.6422

            TOTAL IN =        1196.5695              TOTAL IN =          10.1597

          OUT:                                     OUT:
          ----                                     ----
             STORAGE =         483.1770               STORAGE =           0.1324
       CONSTANT HEAD =         235.7241         CONSTANT HEAD =           3.3894
       RIVER LEAKAGE =         475.3347         RIVER LEAKAGE =           6.6379
            RECHARGE =           2.3333              RECHARGE =           0.0000

           TOTAL OUT =        1196.5692             TOTAL OUT =          10.1597

            IN - OUT =       2.4414E-04              IN - OUT =       6.2943E-05

 PERCENT DISCREPANCY =           0.00     PERCENT DISCREPANCY =           0.00






         TIME SUMMARY AT END OF TIME STEP    1 IN STRESS PERIOD   71
                    SECONDS     MINUTES      HOURS       DAYS        YEARS
                    -----------------------------------------------------------
   TIME STEP LENGTH  86400.      1440.0      24.000      1.0000     2.73785E-03
 STRESS PERIOD TIME  86400.      1440.0      24.000      1.0000     2.73785E-03
         TOTAL TIME 6.13440E+06 1.02240E+05  1704.0      71.000     0.19439    
1
1
                            STRESS PERIOD NO.   72, LENGTH =   1.000000    
                            -----------------------------------------------

                              NUMBER OF TIME STEPS =     1

                               MULTIPLIER FOR DELT =     1.000

                            INITIAL TIME STEP SIZE =   1.000000    

 REUSING NON-PARAMETER RIVER REACHES FROM LAST STRESS PERIOD

      2 RIVER REACHES

                 RECHARGE =  8.560345E-04
 
 SOLVING FOR HEAD 

 OUTPUT CONTROL FOR STRESS PERIOD   72   TIME STEP    1
    SAVE HEAD FOR ALL LAYERS

 HEAD WILL BE SAVED ON UNIT   51 AT END OF TIME STEP    1, STRESS PERIOD   72
1
  VOLUMETRIC BUDGET FOR ENTIRE MODEL AT END OF TIME STEP    1, STRESS PERIOD  72
  ------------------------------------------------------------------------------

     CUMULATIVE VOLUMES      L**3       RATES FOR THIS TIME STEP      L**3/T
     ------------------                 ------------------------

           IN:                                      IN:
           ---                                      ---
             STORAGE =          65.2517               STORAGE =           1.5646
       CONSTANT HEAD =           0.0000         CONSTANT HEAD =           0.0000
       RIVER LEAKAGE =           0.0000         RIVER LEAKAGE =           0.0000
            RECHARGE =        1141.4426              RECHARGE =           8.5603

            TOTAL IN =        1206.6943              TOTAL IN =          10.1250

          OUT:                                     OUT:
          ----                                     ----
             STORAGE =         483.3067               STORAGE =           0.1298
       CONSTANT HEAD =         239.1150         CONSTANT HEAD =           3.3908
       RIVER LEAKAGE =         481.9390         RIVER LEAKAGE =           6.6042
            RECHARGE =           2.3333              RECHARGE =           0.0000

           TOTAL OUT =        1206.6940             TOTAL OUT =          10.1248

            IN - OUT =       3.6621E-04              IN - OUT =       1.4973E-04

 PERCENT DISCREPANCY =           0.00     PERCENT DISCREPANCY =           0.00






         TIME SUMMARY AT END OF TIME STEP    1 IN STRESS PERIOD   72
                    SECONDS     MINUTES      HOURS       DAYS        YEARS
                    -----------------------------------------------------------
   TIME STEP LENGTH  86400.      1440.0      24.000      1.0000     2.73785E-03
 STRESS PERIOD TIME  86400.      1440.0      24.000      1.0000     2.73785E-03
         TOTAL TIME 6.22080E+06 1.03680E+05  1728.0      72.000     0.19713    
1
1
                            STRESS PERIOD NO.   73, LENGTH =   1.000000    
                            -----------------------------------------------

                              NUMBER OF TIME STEPS =     1

                               MULTIPLIER FOR DELT =     1.000

                            INITIAL TIME STEP SIZE =   1.000000    

 REUSING NON-PARAMETER RIVER REACHES FROM LAST STRESS PERIOD

      2 RIVER REACHES

                 RECHARGE =  1.208621E-03
 
 SOLVING FOR HEAD 

 OUTPUT CONTROL FOR STRESS PERIOD   73   TIME STEP    1
    SAVE HEAD FOR ALL LAYERS

 HEAD WILL BE SAVED ON UNIT   51 AT END OF TIME STEP    1, STRESS PERIOD   73
1
  VOLUMETRIC BUDGET FOR ENTIRE MODEL AT END OF TIME STEP    1, STRESS PERIOD  73
  ------------------------------------------------------------------------------

     CUMULATIVE VOLUMES      L**3       RATES FOR THIS TIME STEP      L**3/T
     ------------------                 ------------------------

           IN:                                      IN:
           ---                                      ---
             STORAGE =          65.2517               STORAGE =           0.0000
       CONSTANT HEAD =           0.0000         CONSTANT HEAD =           0.0000
       RIVER LEAKAGE =           0.0000         RIVER LEAKAGE =           0.0000
            RECHARGE =        1153.5288              RECHARGE =          12.0862

            TOTAL IN =        1218.7805              TOTAL IN =          12.0862

          OUT:                                     OUT:
          ----                                     ----
             STORAGE =         485.3042               STORAGE =           1.9975
       CONSTANT HEAD =         242.5074         CONSTANT HEAD =           3.3924
       RIVER LEAKAGE =         488.6354         RIVER LEAKAGE =           6.6965
            RECHARGE =           2.3333              RECHARGE =           0.0000

           TOTAL OUT =        1218.7804             TOTAL OUT =          12.0864

            IN - OUT =       1.2207E-04              IN - OUT =      -1.5354E-04

 PERCENT DISCREPANCY =           0.00     PERCENT DISCREPANCY =          -0.00






         TIME SUMMARY AT END OF TIME STEP    1 IN STRESS PERIOD   73
                    SECONDS     MINUTES      HOURS       DAYS        YEARS
                    -----------------------------------------------------------
   TIME STEP LENGTH  86400.      1440.0      24.000      1.0000     2.73785E-03
 STRESS PERIOD TIME  86400.      1440.0      24.000      1.0000     2.73785E-03
         TOTAL TIME 6.30720E+06 1.05120E+05  1752.0      73.000     0.19986    
1
1
                            STRESS PERIOD NO.   74, LENGTH =   1.000000    
                            -----------------------------------------------

                              NUMBER OF TIME STEPS =     1

                               MULTIPLIER FOR DELT =     1.000

                            INITIAL TIME STEP SIZE =   1.000000    

 REUSING NON-PARAMETER RIVER REACHES FROM LAST STRESS PERIOD

      2 RIVER REACHES

                 RECHARGE =  6.853448E-04
 
 SOLVING FOR HEAD 

 OUTPUT CONTROL FOR STRESS PERIOD   74   TIME STEP    1
    SAVE HEAD FOR ALL LAYERS

 HEAD WILL BE SAVED ON UNIT   51 AT END OF TIME STEP    1, STRESS PERIOD   74
1
  VOLUMETRIC BUDGET FOR ENTIRE MODEL AT END OF TIME STEP    1, STRESS PERIOD  74
  ------------------------------------------------------------------------------

     CUMULATIVE VOLUMES      L**3       RATES FOR THIS TIME STEP      L**3/T
     ------------------                 ------------------------

           IN:                                      IN:
           ---                                      ---
             STORAGE =          68.4780               STORAGE =           3.2263
       CONSTANT HEAD =           0.0000         CONSTANT HEAD =           0.0000
       RIVER LEAKAGE =           0.0000         RIVER LEAKAGE =           0.0000
            RECHARGE =        1160.3822              RECHARGE =           6.8534

            TOTAL IN =        1228.8602              TOTAL IN =          10.0797

          OUT:                                     OUT:
          ----                                     ----
             STORAGE =         485.4298               STORAGE =           0.1256
       CONSTANT HEAD =         245.9012         CONSTANT HEAD =           3.3939
       RIVER LEAKAGE =         495.1958         RIVER LEAKAGE =           6.5604
            RECHARGE =           2.3333              RECHARGE =           0.0000

           TOTAL OUT =        1228.8602             TOTAL OUT =          10.0799

            IN - OUT =           0.0000              IN - OUT =      -1.8024E-04

 PERCENT DISCREPANCY =           0.00     PERCENT DISCREPANCY =          -0.00






         TIME SUMMARY AT END OF TIME STEP    1 IN STRESS PERIOD   74
                    SECONDS     MINUTES      HOURS       DAYS        YEARS
                    -----------------------------------------------------------
   TIME STEP LENGTH  86400.      1440.0      24.000      1.0000     2.73785E-03
 STRESS PERIOD TIME  86400.      1440.0      24.000      1.0000     2.73785E-03
         TOTAL TIME 6.39360E+06 1.06560E+05  1776.0      74.000     0.20260    
1
1
                            STRESS PERIOD NO.   75, LENGTH =   1.000000    
                            -----------------------------------------------

                              NUMBER OF TIME STEPS =     1

                               MULTIPLIER FOR DELT =     1.000

                            INITIAL TIME STEP SIZE =   1.000000    

 REUSING NON-PARAMETER RIVER REACHES FROM LAST STRESS PERIOD

      2 RIVER REACHES

                 RECHARGE =  9.146552E-04
 
 SOLVING FOR HEAD 

 OUTPUT CONTROL FOR STRESS PERIOD   75   TIME STEP    1
    SAVE HEAD FOR ALL LAYERS

 HEAD WILL BE SAVED ON UNIT   51 AT END OF TIME STEP    1, STRESS PERIOD   75
1
  VOLUMETRIC BUDGET FOR ENTIRE MODEL AT END OF TIME STEP    1, STRESS PERIOD  75
  ------------------------------------------------------------------------------

     CUMULATIVE VOLUMES      L**3       RATES FOR THIS TIME STEP      L**3/T
     ------------------                 ------------------------

           IN:                                      IN:
           ---                                      ---
             STORAGE =          69.4087               STORAGE =           0.9307
       CONSTANT HEAD =           0.0000         CONSTANT HEAD =           0.0000
       RIVER LEAKAGE =           0.0000         RIVER LEAKAGE =           0.0000
            RECHARGE =        1169.5288              RECHARGE =           9.1466

            TOTAL IN =        1238.9375              TOTAL IN =          10.0772

          OUT:                                     OUT:
          ----                                     ----
             STORAGE =         485.5534               STORAGE =           0.1235
       CONSTANT HEAD =         249.2965         CONSTANT HEAD =           3.3953
       RIVER LEAKAGE =         501.7544         RIVER LEAKAGE =           6.5586
            RECHARGE =           2.3333              RECHARGE =           0.0000

           TOTAL OUT =        1238.9376             TOTAL OUT =          10.0774

            IN - OUT =      -1.2207E-04              IN - OUT =      -1.2779E-04

 PERCENT DISCREPANCY =          -0.00     PERCENT DISCREPANCY =          -0.00






         TIME SUMMARY AT END OF TIME STEP    1 IN STRESS PERIOD   75
                    SECONDS     MINUTES      HOURS       DAYS        YEARS
                    -----------------------------------------------------------
   TIME STEP LENGTH  86400.      1440.0      24.000      1.0000     2.73785E-03
 STRESS PERIOD TIME  86400.      1440.0      24.000      1.0000     2.73785E-03
         TOTAL TIME 6.48000E+06 1.08000E+05  1800.0      75.000     0.20534    
1
1
                            STRESS PERIOD NO.   76, LENGTH =   1.000000    
                            -----------------------------------------------

                              NUMBER OF TIME STEPS =     1

                               MULTIPLIER FOR DELT =     1.000

                            INITIAL TIME STEP SIZE =   1.000000    

 REUSING NON-PARAMETER RIVER REACHES FROM LAST STRESS PERIOD

      2 RIVER REACHES

                 RECHARGE =  4.482759E-04
 
 SOLVING FOR HEAD 

 OUTPUT CONTROL FOR STRESS PERIOD   76   TIME STEP    1
    SAVE HEAD FOR ALL LAYERS

 HEAD WILL BE SAVED ON UNIT   51 AT END OF TIME STEP    1, STRESS PERIOD   76
1
  VOLUMETRIC BUDGET FOR ENTIRE MODEL AT END OF TIME STEP    1, STRESS PERIOD  76
  ------------------------------------------------------------------------------

     CUMULATIVE VOLUMES      L**3       RATES FOR THIS TIME STEP      L**3/T
     ------------------                 ------------------------

           IN:                                      IN:
           ---                                      ---
             STORAGE =          74.8217               STORAGE =           5.4130
       CONSTANT HEAD =           0.0000         CONSTANT HEAD =           0.0000
       RIVER LEAKAGE =           0.0000         RIVER LEAKAGE =           0.0000
            RECHARGE =        1174.0116              RECHARGE =           4.4828

            TOTAL IN =        1248.8333              TOTAL IN =           9.8957

          OUT:                                     OUT:
          ----                                     ----
             STORAGE =         485.6719               STORAGE =           0.1186
       CONSTANT HEAD =         252.6931         CONSTANT HEAD =           3.3965
       RIVER LEAKAGE =         508.1350         RIVER LEAKAGE =           6.3806
            RECHARGE =           2.3333              RECHARGE =           0.0000

           TOTAL OUT =        1248.8334             TOTAL OUT =           9.8957

            IN - OUT =      -1.2207E-04              IN - OUT =           0.0000

 PERCENT DISCREPANCY =          -0.00     PERCENT DISCREPANCY =           0.00






         TIME SUMMARY AT END OF TIME STEP    1 IN STRESS PERIOD   76
                    SECONDS     MINUTES      HOURS       DAYS        YEARS
                    -----------------------------------------------------------
   TIME STEP LENGTH  86400.      1440.0      24.000      1.0000     2.73785E-03
 STRESS PERIOD TIME  86400.      1440.0      24.000      1.0000     2.73785E-03
         TOTAL TIME 6.56640E+06 1.09440E+05  1824.0      76.000     0.20808    
1
1
                            STRESS PERIOD NO.   77, LENGTH =   1.000000    
                            -----------------------------------------------

                              NUMBER OF TIME STEPS =     1

                               MULTIPLIER FOR DELT =     1.000

                            INITIAL TIME STEP SIZE =   1.000000    

 REUSING NON-PARAMETER RIVER REACHES FROM LAST STRESS PERIOD

      2 RIVER REACHES

                 RECHARGE =  8.418104E-04
 
 SOLVING FOR HEAD 

 OUTPUT CONTROL FOR STRESS PERIOD   77   TIME STEP    1
    SAVE HEAD FOR ALL LAYERS

 HEAD WILL BE SAVED ON UNIT   51 AT END OF TIME STEP    1, STRESS PERIOD   77
1
  VOLUMETRIC BUDGET FOR ENTIRE MODEL AT END OF TIME STEP    1, STRESS PERIOD  77
  ------------------------------------------------------------------------------

     CUMULATIVE VOLUMES      L**3       RATES FOR THIS TIME STEP      L**3/T
     ------------------                 ------------------------

           IN:                                      IN:
           ---                                      ---
             STORAGE =          76.3229               STORAGE =           1.5012
       CONSTANT HEAD =           0.0000         CONSTANT HEAD =           0.0000
       RIVER LEAKAGE =           0.0000         RIVER LEAKAGE =           0.0000
            RECHARGE =        1182.4297              RECHARGE =           8.4181

            TOTAL IN =        1258.7526              TOTAL IN =           9.9193

          OUT:                                     OUT:
          ----                                     ----
             STORAGE =         485.7926               STORAGE =           0.1207
       CONSTANT HEAD =         256.0909         CONSTANT HEAD =           3.3978
       RIVER LEAKAGE =         514.5358         RIVER LEAKAGE =           6.4008
            RECHARGE =           2.3333              RECHARGE =           0.0000

           TOTAL OUT =        1258.7528             TOTAL OUT =           9.9193

            IN - OUT =      -2.4414E-04              IN - OUT =       1.3351E-05

 PERCENT DISCREPANCY =          -0.00     PERCENT DISCREPANCY =           0.00






         TIME SUMMARY AT END OF TIME STEP    1 IN STRESS PERIOD   77
                    SECONDS     MINUTES      HOURS       DAYS        YEARS
                    -----------------------------------------------------------
   TIME STEP LENGTH  86400.      1440.0      24.000      1.0000     2.73785E-03
 STRESS PERIOD TIME  86400.      1440.0      24.000      1.0000     2.73785E-03
         TOTAL TIME 6.65280E+06 1.10880E+05  1848.0      77.000     0.21081    
1
1
                            STRESS PERIOD NO.   78, LENGTH =   1.000000    
                            -----------------------------------------------

                              NUMBER OF TIME STEPS =     1

                               MULTIPLIER FOR DELT =     1.000

                            INITIAL TIME STEP SIZE =   1.000000    

 REUSING NON-PARAMETER RIVER REACHES FROM LAST STRESS PERIOD

      2 RIVER REACHES

                 RECHARGE =  9.698276E-05
 
 SOLVING FOR HEAD 

 OUTPUT CONTROL FOR STRESS PERIOD   78   TIME STEP    1
    SAVE HEAD FOR ALL LAYERS

 HEAD WILL BE SAVED ON UNIT   51 AT END OF TIME STEP    1, STRESS PERIOD   78
1
  VOLUMETRIC BUDGET FOR ENTIRE MODEL AT END OF TIME STEP    1, STRESS PERIOD  78
  ------------------------------------------------------------------------------

     CUMULATIVE VOLUMES      L**3       RATES FOR THIS TIME STEP      L**3/T
     ------------------                 ------------------------

           IN:                                      IN:
           ---                                      ---
             STORAGE =          84.9911               STORAGE =           8.6683
       CONSTANT HEAD =           0.0000         CONSTANT HEAD =           0.0000
       RIVER LEAKAGE =           0.0000         RIVER LEAKAGE =           0.0000
            RECHARGE =        1183.3995              RECHARGE =           0.9698

            TOTAL IN =        1268.3906              TOTAL IN =           9.6381

          OUT:                                     OUT:
          ----                                     ----
             STORAGE =         485.9019               STORAGE =           0.1093
       CONSTANT HEAD =         259.4898         CONSTANT HEAD =           3.3989
       RIVER LEAKAGE =         520.6658         RIVER LEAKAGE =           6.1300
            RECHARGE =           2.3333              RECHARGE =           0.0000

           TOTAL OUT =        1268.3910             TOTAL OUT =           9.6382

            IN - OUT =      -3.6621E-04              IN - OUT =      -9.4414E-05

 PERCENT DISCREPANCY =          -0.00     PERCENT DISCREPANCY =          -0.00






         TIME SUMMARY AT END OF TIME STEP    1 IN STRESS PERIOD   78
                    SECONDS     MINUTES      HOURS       DAYS        YEARS
                    -----------------------------------------------------------
   TIME STEP LENGTH  86400.      1440.0      24.000      1.0000     2.73785E-03
 STRESS PERIOD TIME  86400.      1440.0      24.000      1.0000     2.73785E-03
         TOTAL TIME 6.73920E+06 1.12320E+05  1872.0      78.000     0.21355    
1
1
                            STRESS PERIOD NO.   79, LENGTH =   1.000000    
                            -----------------------------------------------

                              NUMBER OF TIME STEPS =     1

                               MULTIPLIER FOR DELT =     1.000

                            INITIAL TIME STEP SIZE =   1.000000    

 REUSING NON-PARAMETER RIVER REACHES FROM LAST STRESS PERIOD

      2 RIVER REACHES

                 RECHARGE =  7.310345E-04
 
 SOLVING FOR HEAD 

 OUTPUT CONTROL FOR STRESS PERIOD   79   TIME STEP    1
    SAVE HEAD FOR ALL LAYERS

 HEAD WILL BE SAVED ON UNIT   51 AT END OF TIME STEP    1, STRESS PERIOD   79
1
  VOLUMETRIC BUDGET FOR ENTIRE MODEL AT END OF TIME STEP    1, STRESS PERIOD  79
  ------------------------------------------------------------------------------

     CUMULATIVE VOLUMES      L**3       RATES FOR THIS TIME STEP      L**3/T
     ------------------                 ------------------------

           IN:                                      IN:
           ---                                      ---
             STORAGE =          87.3754               STORAGE =           2.3843
       CONSTANT HEAD =           0.0000         CONSTANT HEAD =           0.0000
       RIVER LEAKAGE =           0.0000         RIVER LEAKAGE =           0.0000
            RECHARGE =        1190.7098              RECHARGE =           7.3103

            TOTAL IN =        1278.0853              TOTAL IN =           9.6947

          OUT:                                     OUT:
          ----                                     ----
             STORAGE =         486.0229               STORAGE =           0.1209
       CONSTANT HEAD =         262.8898         CONSTANT HEAD =           3.4000
       RIVER LEAKAGE =         526.8396         RIVER LEAKAGE =           6.1738
            RECHARGE =           2.3333              RECHARGE =           0.0000

           TOTAL OUT =        1278.0857             TOTAL OUT =           9.6947

            IN - OUT =      -3.6621E-04              IN - OUT =      -4.8637E-05

 PERCENT DISCREPANCY =          -0.00     PERCENT DISCREPANCY =          -0.00






         TIME SUMMARY AT END OF TIME STEP    1 IN STRESS PERIOD   79
                    SECONDS     MINUTES      HOURS       DAYS        YEARS
                    -----------------------------------------------------------
   TIME STEP LENGTH  86400.      1440.0      24.000      1.0000     2.73785E-03
 STRESS PERIOD TIME  86400.      1440.0      24.000      1.0000     2.73785E-03
         TOTAL TIME 6.82560E+06 1.13760E+05  1896.0      79.000     0.21629    
1
1
                            STRESS PERIOD NO.   80, LENGTH =   1.000000    
                            -----------------------------------------------

                              NUMBER OF TIME STEPS =     1

                               MULTIPLIER FOR DELT =     1.000

                            INITIAL TIME STEP SIZE =   1.000000    

 REUSING NON-PARAMETER RIVER REACHES FROM LAST STRESS PERIOD

      2 RIVER REACHES

                 RECHARGE =  1.743103E-03
 
 SOLVING FOR HEAD 

 OUTPUT CONTROL FOR STRESS PERIOD   80   TIME STEP    1
    SAVE HEAD FOR ALL LAYERS

 HEAD WILL BE SAVED ON UNIT   51 AT END OF TIME STEP    1, STRESS PERIOD   80
1
  VOLUMETRIC BUDGET FOR ENTIRE MODEL AT END OF TIME STEP    1, STRESS PERIOD  80
  ------------------------------------------------------------------------------

     CUMULATIVE VOLUMES      L**3       RATES FOR THIS TIME STEP      L**3/T
     ------------------                 ------------------------

           IN:                                      IN:
           ---                                      ---
             STORAGE =          87.3754               STORAGE =           0.0000
       CONSTANT HEAD =           0.0000         CONSTANT HEAD =           0.0000
       RIVER LEAKAGE =           0.0000         RIVER LEAKAGE =           0.0000
            RECHARGE =        1208.1409              RECHARGE =          17.4310

            TOTAL IN =        1295.5164              TOTAL IN =          17.4310

          OUT:                                     OUT:
          ----                                     ----
             STORAGE =         493.5276               STORAGE =           7.5047
       CONSTANT HEAD =         266.2913         CONSTANT HEAD =           3.4014
       RIVER LEAKAGE =         533.3647         RIVER LEAKAGE =           6.5251
            RECHARGE =           2.3333              RECHARGE =           0.0000

           TOTAL OUT =        1295.5170             TOTAL OUT =          17.4313

            IN - OUT =      -6.1035E-04              IN - OUT =      -2.3079E-04

 PERCENT DISCREPANCY =          -0.00     PERCENT DISCREPANCY =          -0.00






         TIME SUMMARY AT END OF TIME STEP    1 IN STRESS PERIOD   80
                    SECONDS     MINUTES      HOURS       DAYS        YEARS
                    -----------------------------------------------------------
   TIME STEP LENGTH  86400.      1440.0      24.000      1.0000     2.73785E-03
 STRESS PERIOD TIME  86400.      1440.0      24.000      1.0000     2.73785E-03
         TOTAL TIME 6.91200E+06 1.15200E+05  1920.0      80.000     0.21903    
1
1
                            STRESS PERIOD NO.   81, LENGTH =   1.000000    
                            -----------------------------------------------

                              NUMBER OF TIME STEPS =     1

                               MULTIPLIER FOR DELT =     1.000

                            INITIAL TIME STEP SIZE =   1.000000    

 REUSING NON-PARAMETER RIVER REACHES FROM LAST STRESS PERIOD

      2 RIVER REACHES

                 RECHARGE =  5.978448E-04
 
 SOLVING FOR HEAD 

 OUTPUT CONTROL FOR STRESS PERIOD   81   TIME STEP    1
    SAVE HEAD FOR ALL LAYERS

 HEAD WILL BE SAVED ON UNIT   51 AT END OF TIME STEP    1, STRESS PERIOD   81
1
  VOLUMETRIC BUDGET FOR ENTIRE MODEL AT END OF TIME STEP    1, STRESS PERIOD  81
  ------------------------------------------------------------------------------

     CUMULATIVE VOLUMES      L**3       RATES FOR THIS TIME STEP      L**3/T
     ------------------                 ------------------------

           IN:                                      IN:
           ---                                      ---
             STORAGE =          91.2342               STORAGE =           3.8587
       CONSTANT HEAD =           0.0000         CONSTANT HEAD =           0.0000
       RIVER LEAKAGE =           0.0000         RIVER LEAKAGE =           0.0000
            RECHARGE =        1214.1193              RECHARGE =           5.9784

            TOTAL IN =        1305.3534              TOTAL IN =           9.8372

          OUT:                                     OUT:
          ----                                     ----
             STORAGE =         493.6337               STORAGE =           0.1061
       CONSTANT HEAD =         269.6939         CONSTANT HEAD =           3.4026
       RIVER LEAKAGE =         539.6932         RIVER LEAKAGE =           6.3286
            RECHARGE =           2.3333              RECHARGE =           0.0000

           TOTAL OUT =        1305.3542             TOTAL OUT =           9.8373

            IN - OUT =      -8.5449E-04              IN - OUT =      -1.7357E-04

 PERCENT DISCREPANCY =          -0.00     PERCENT DISCREPANCY =          -0.00






         TIME SUMMARY AT END OF TIME STEP    1 IN STRESS PERIOD   81
                    SECONDS     MINUTES      HOURS       DAYS        YEARS
                    -----------------------------------------------------------
   TIME STEP LENGTH  86400.      1440.0      24.000      1.0000     2.73785E-03
 STRESS PERIOD TIME  86400.      1440.0      24.000      1.0000     2.73785E-03
         TOTAL TIME 6.99840E+06 1.16640E+05  1944.0      81.000     0.22177    
1
1
                            STRESS PERIOD NO.   82, LENGTH =   1.000000    
                            -----------------------------------------------

                              NUMBER OF TIME STEPS =     1

                               MULTIPLIER FOR DELT =     1.000

                            INITIAL TIME STEP SIZE =   1.000000    

 REUSING NON-PARAMETER RIVER REACHES FROM LAST STRESS PERIOD

      2 RIVER REACHES

                 RECHARGE =  1.153017E-03
 
 SOLVING FOR HEAD 

 OUTPUT CONTROL FOR STRESS PERIOD   82   TIME STEP    1
    SAVE HEAD FOR ALL LAYERS

 HEAD WILL BE SAVED ON UNIT   51 AT END OF TIME STEP    1, STRESS PERIOD   82
1
  VOLUMETRIC BUDGET FOR ENTIRE MODEL AT END OF TIME STEP    1, STRESS PERIOD  82
  ------------------------------------------------------------------------------

     CUMULATIVE VOLUMES      L**3       RATES FOR THIS TIME STEP      L**3/T
     ------------------                 ------------------------

           IN:                                      IN:
           ---                                      ---
             STORAGE =          91.2342               STORAGE =           0.0000
       CONSTANT HEAD =           0.0000         CONSTANT HEAD =           0.0000
       RIVER LEAKAGE =           0.0000         RIVER LEAKAGE =           0.0000
            RECHARGE =        1225.6494              RECHARGE =          11.5302

            TOTAL IN =        1316.8835              TOTAL IN =          11.5302

          OUT:                                     OUT:
          ----                                     ----
             STORAGE =         495.3359               STORAGE =           1.7022
       CONSTANT HEAD =         273.0979         CONSTANT HEAD =           3.4040
       RIVER LEAKAGE =         546.1175         RIVER LEAKAGE =           6.4242
            RECHARGE =           2.3333              RECHARGE =           0.0000

           TOTAL OUT =        1316.8846             TOTAL OUT =          11.5304

            IN - OUT =      -1.0986E-03              IN - OUT =      -2.1839E-04

 PERCENT DISCREPANCY =          -0.00     PERCENT DISCREPANCY =          -0.00






         TIME SUMMARY AT END OF TIME STEP    1 IN STRESS PERIOD   82
                    SECONDS     MINUTES      HOURS       DAYS        YEARS
                    -----------------------------------------------------------
   TIME STEP LENGTH  86400.      1440.0      24.000      1.0000     2.73785E-03
 STRESS PERIOD TIME  86400.      1440.0      24.000      1.0000     2.73785E-03
         TOTAL TIME 7.08480E+06 1.18080E+05  1968.0      82.000     0.22450    
1
1
                            STRESS PERIOD NO.   83, LENGTH =   1.000000    
                            -----------------------------------------------

                              NUMBER OF TIME STEPS =     1

                               MULTIPLIER FOR DELT =     1.000

                            INITIAL TIME STEP SIZE =   1.000000    

 REUSING NON-PARAMETER RIVER REACHES FROM LAST STRESS PERIOD

      2 RIVER REACHES

                 RECHARGE =  8.008621E-04
 
 SOLVING FOR HEAD 

 OUTPUT CONTROL FOR STRESS PERIOD   83   TIME STEP    1
    SAVE HEAD FOR ALL LAYERS

 HEAD WILL BE SAVED ON UNIT   51 AT END OF TIME STEP    1, STRESS PERIOD   83
1
  VOLUMETRIC BUDGET FOR ENTIRE MODEL AT END OF TIME STEP    1, STRESS PERIOD  83
  ------------------------------------------------------------------------------

     CUMULATIVE VOLUMES      L**3       RATES FOR THIS TIME STEP      L**3/T
     ------------------                 ------------------------

           IN:                                      IN:
           ---                                      ---
             STORAGE =          93.0851               STORAGE =           1.8509
       CONSTANT HEAD =           0.0000         CONSTANT HEAD =           0.0000
       RIVER LEAKAGE =           0.0000         RIVER LEAKAGE =           0.0000
            RECHARGE =        1233.6581              RECHARGE =           8.0086

            TOTAL IN =        1326.7432              TOTAL IN =           9.8595

          OUT:                                     OUT:
          ----                                     ----
             STORAGE =         495.4392               STORAGE =           0.1033
       CONSTANT HEAD =         276.5030         CONSTANT HEAD =           3.4052
       RIVER LEAKAGE =         552.4684         RIVER LEAKAGE =           6.3509
            RECHARGE =           2.3333              RECHARGE =           0.0000

           TOTAL OUT =        1326.7440             TOTAL OUT =           9.8594

            IN - OUT =      -8.5449E-04              IN - OUT =       1.3065E-04

 PERCENT DISCREPANCY =          -0.00     PERCENT DISCREPANCY =           0.00






         TIME SUMMARY AT END OF TIME STEP    1 IN STRESS PERIOD   83
                    SECONDS     MINUTES      HOURS       DAYS        YEARS
                    -----------------------------------------------------------
   TIME STEP LENGTH  86400.      1440.0      24.000      1.0000     2.73785E-03
 STRESS PERIOD TIME  86400.      1440.0      24.000      1.0000     2.73785E-03
         TOTAL TIME 7.17120E+06 1.19520E+05  1992.0      83.000     0.22724    
1
1
                            STRESS PERIOD NO.   84, LENGTH =   1.000000    
                            -----------------------------------------------

                              NUMBER OF TIME STEPS =     1

                               MULTIPLIER FOR DELT =     1.000

                            INITIAL TIME STEP SIZE =   1.000000    

 REUSING NON-PARAMETER RIVER REACHES FROM LAST STRESS PERIOD

      2 RIVER REACHES

                 RECHARGE = -1.551724E-05
 
 SOLVING FOR HEAD 

 OUTPUT CONTROL FOR STRESS PERIOD   84   TIME STEP    1
    SAVE HEAD FOR ALL LAYERS

 HEAD WILL BE SAVED ON UNIT   51 AT END OF TIME STEP    1, STRESS PERIOD   84
1
  VOLUMETRIC BUDGET FOR ENTIRE MODEL AT END OF TIME STEP    1, STRESS PERIOD  84
  ------------------------------------------------------------------------------

     CUMULATIVE VOLUMES      L**3       RATES FOR THIS TIME STEP      L**3/T
     ------------------                 ------------------------

           IN:                                      IN:
           ---                                      ---
             STORAGE =         102.7641               STORAGE =           9.6790
       CONSTANT HEAD =           0.0000         CONSTANT HEAD =           0.0000
       RIVER LEAKAGE =           0.0000         RIVER LEAKAGE =           0.0000
            RECHARGE =        1233.6581              RECHARGE =           0.0000

            TOTAL IN =        1336.4221              TOTAL IN =           9.6790

          OUT:                                     OUT:
          ----                                     ----
             STORAGE =         495.5351               STORAGE =       9.5902E-02
       CONSTANT HEAD =         279.9091         CONSTANT HEAD =           3.4060
       RIVER LEAKAGE =         558.4905         RIVER LEAKAGE =           6.0221
            RECHARGE =           2.4885              RECHARGE =           0.1552

           TOTAL OUT =        1336.4232             TOTAL OUT =           9.6792

            IN - OUT =      -1.0986E-03              IN - OUT =      -2.1744E-04

 PERCENT DISCREPANCY =          -0.00     PERCENT DISCREPANCY =          -0.00






         TIME SUMMARY AT END OF TIME STEP    1 IN STRESS PERIOD   84
                    SECONDS     MINUTES      HOURS       DAYS        YEARS
                    -----------------------------------------------------------
   TIME STEP LENGTH  86400.      1440.0      24.000      1.0000     2.73785E-03
 STRESS PERIOD TIME  86400.      1440.0      24.000      1.0000     2.73785E-03
         TOTAL TIME 7.25760E+06 1.20960E+05  2016.0      84.000     0.22998    
1
1
                            STRESS PERIOD NO.   85, LENGTH =   1.000000    
                            -----------------------------------------------

                              NUMBER OF TIME STEPS =     1

                               MULTIPLIER FOR DELT =     1.000

                            INITIAL TIME STEP SIZE =   1.000000    

 REUSING NON-PARAMETER RIVER REACHES FROM LAST STRESS PERIOD

      2 RIVER REACHES

                 RECHARGE =  6.771552E-04
 
 SOLVING FOR HEAD 

 OUTPUT CONTROL FOR STRESS PERIOD   85   TIME STEP    1
    SAVE HEAD FOR ALL LAYERS

 HEAD WILL BE SAVED ON UNIT   51 AT END OF TIME STEP    1, STRESS PERIOD   85
1
  VOLUMETRIC BUDGET FOR ENTIRE MODEL AT END OF TIME STEP    1, STRESS PERIOD  85
  ------------------------------------------------------------------------------

     CUMULATIVE VOLUMES      L**3       RATES FOR THIS TIME STEP      L**3/T
     ------------------                 ------------------------

           IN:                                      IN:
           ---                                      ---
             STORAGE =         105.5534               STORAGE =           2.7893
       CONSTANT HEAD =           0.0000         CONSTANT HEAD =           0.0000
       RIVER LEAKAGE =           0.0000         RIVER LEAKAGE =           0.0000
            RECHARGE =        1240.4297              RECHARGE =           6.7716

            TOTAL IN =        1345.9830              TOTAL IN =           9.5609

          OUT:                                     OUT:
          ----                                     ----
             STORAGE =         495.6348               STORAGE =       9.9629E-02
       CONSTANT HEAD =         283.3161         CONSTANT HEAD =           3.4070
       RIVER LEAKAGE =         564.5447         RIVER LEAKAGE =           6.0543
            RECHARGE =           2.4885              RECHARGE =           0.0000

           TOTAL OUT =        1345.9841             TOTAL OUT =           9.5609

            IN - OUT =      -1.0986E-03              IN - OUT =      -8.5831E-06

 PERCENT DISCREPANCY =          -0.00     PERCENT DISCREPANCY =          -0.00






         TIME SUMMARY AT END OF TIME STEP    1 IN STRESS PERIOD   85
                    SECONDS     MINUTES      HOURS       DAYS        YEARS
                    -----------------------------------------------------------
   TIME STEP LENGTH  86400.      1440.0      24.000      1.0000     2.73785E-03
 STRESS PERIOD TIME  86400.      1440.0      24.000      1.0000     2.73785E-03
         TOTAL TIME 7.34400E+06 1.22400E+05  2040.0      85.000     0.23272    
1
1
                            STRESS PERIOD NO.   86, LENGTH =   1.000000    
                            -----------------------------------------------

                              NUMBER OF TIME STEPS =     1

                               MULTIPLIER FOR DELT =     1.000

                            INITIAL TIME STEP SIZE =   1.000000    

 REUSING NON-PARAMETER RIVER REACHES FROM LAST STRESS PERIOD

      2 RIVER REACHES

                 RECHARGE =  5.262931E-04
 
 SOLVING FOR HEAD 

 OUTPUT CONTROL FOR STRESS PERIOD   86   TIME STEP    1
    SAVE HEAD FOR ALL LAYERS

 HEAD WILL BE SAVED ON UNIT   51 AT END OF TIME STEP    1, STRESS PERIOD   86
1
  VOLUMETRIC BUDGET FOR ENTIRE MODEL AT END OF TIME STEP    1, STRESS PERIOD  86
  ------------------------------------------------------------------------------

     CUMULATIVE VOLUMES      L**3       RATES FOR THIS TIME STEP      L**3/T
     ------------------                 ------------------------

           IN:                                      IN:
           ---                                      ---
             STORAGE =         109.7749               STORAGE =           4.2215
       CONSTANT HEAD =           0.0000         CONSTANT HEAD =           0.0000
       RIVER LEAKAGE =           0.0000         RIVER LEAKAGE =           0.0000
            RECHARGE =        1245.6926              RECHARGE =           5.2629

            TOTAL IN =        1355.4675              TOTAL IN =           9.4844

          OUT:                                     OUT:
          ----                                     ----
             STORAGE =         495.7240               STORAGE =       8.9260E-02
       CONSTANT HEAD =         286.7240         CONSTANT HEAD =           3.4079
       RIVER LEAKAGE =         570.5319         RIVER LEAKAGE =           5.9872
            RECHARGE =           2.4885              RECHARGE =           0.0000

           TOTAL OUT =        1355.4685             TOTAL OUT =           9.4843

            IN - OUT =      -9.7656E-04              IN - OUT =       8.2970E-05

 PERCENT DISCREPANCY =          -0.00     PERCENT DISCREPANCY =           0.00






         TIME SUMMARY AT END OF TIME STEP    1 IN STRESS PERIOD   86
                    SECONDS     MINUTES      HOURS       DAYS        YEARS
                    -----------------------------------------------------------
   TIME STEP LENGTH  86400.      1440.0      24.000      1.0000     2.73785E-03
 STRESS PERIOD TIME  86400.      1440.0      24.000      1.0000     2.73785E-03
         TOTAL TIME 7.43040E+06 1.23840E+05  2064.0      86.000     0.23546    
1
1
                            STRESS PERIOD NO.   87, LENGTH =   1.000000    
                            -----------------------------------------------

                              NUMBER OF TIME STEPS =     1

                               MULTIPLIER FOR DELT =     1.000

                            INITIAL TIME STEP SIZE =   1.000000    

 REUSING NON-PARAMETER RIVER REACHES FROM LAST STRESS PERIOD

      2 RIVER REACHES

                 RECHARGE =  1.203448E-03
 
 SOLVING FOR HEAD 

 OUTPUT CONTROL FOR STRESS PERIOD   87   TIME STEP    1
    SAVE HEAD FOR ALL LAYERS

 HEAD WILL BE SAVED ON UNIT   51 AT END OF TIME STEP    1, STRESS PERIOD   87
1
  VOLUMETRIC BUDGET FOR ENTIRE MODEL AT END OF TIME STEP    1, STRESS PERIOD  87
  ------------------------------------------------------------------------------

     CUMULATIVE VOLUMES      L**3       RATES FOR THIS TIME STEP      L**3/T
     ------------------                 ------------------------

           IN:                                      IN:
           ---                                      ---
             STORAGE =         109.7749               STORAGE =           0.0000
       CONSTANT HEAD =           0.0000         CONSTANT HEAD =           0.0000
       RIVER LEAKAGE =           0.0000         RIVER LEAKAGE =           0.0000
            RECHARGE =        1257.7271              RECHARGE =          12.0345

            TOTAL IN =        1367.5020              TOTAL IN =          12.0345

          OUT:                                     OUT:
          ----                                     ----
             STORAGE =         498.1808               STORAGE =           2.4567
       CONSTANT HEAD =         290.1329         CONSTANT HEAD =           3.4090
       RIVER LEAKAGE =         576.7006         RIVER LEAKAGE =           6.1687
            RECHARGE =           2.4885              RECHARGE =           0.0000

           TOTAL OUT =        1367.5029             TOTAL OUT =          12.0344

            IN - OUT =      -9.7656E-04              IN - OUT =       1.0967E-04

 PERCENT DISCREPANCY =          -0.00     PERCENT DISCREPANCY =           0.00






         TIME SUMMARY AT END OF TIME STEP    1 IN STRESS PERIOD   87
                    SECONDS     MINUTES      HOURS       DAYS        YEARS
                    -----------------------------------------------------------
   TIME STEP LENGTH  86400.      1440.0      24.000      1.0000     2.73785E-03
 STRESS PERIOD TIME  86400.      1440.0      24.000      1.0000     2.73785E-03
         TOTAL TIME 7.51680E+06 1.25280E+05  2088.0      87.000     0.23819    
1
1
                            STRESS PERIOD NO.   88, LENGTH =   1.000000    
                            -----------------------------------------------

                              NUMBER OF TIME STEPS =     1

                               MULTIPLIER FOR DELT =     1.000

                            INITIAL TIME STEP SIZE =   1.000000    

 REUSING NON-PARAMETER RIVER REACHES FROM LAST STRESS PERIOD

      2 RIVER REACHES

                 RECHARGE =  7.607759E-04
 
 SOLVING FOR HEAD 

 OUTPUT CONTROL FOR STRESS PERIOD   88   TIME STEP    1
    SAVE HEAD FOR ALL LAYERS

 HEAD WILL BE SAVED ON UNIT   51 AT END OF TIME STEP    1, STRESS PERIOD   88
1
  VOLUMETRIC BUDGET FOR ENTIRE MODEL AT END OF TIME STEP    1, STRESS PERIOD  88
  ------------------------------------------------------------------------------

     CUMULATIVE VOLUMES      L**3       RATES FOR THIS TIME STEP      L**3/T
     ------------------                 ------------------------

           IN:                                      IN:
           ---                                      ---
             STORAGE =         111.7747               STORAGE =           1.9998
       CONSTANT HEAD =           0.0000         CONSTANT HEAD =           0.0000
       RIVER LEAKAGE =           0.0000         RIVER LEAKAGE =           0.0000
            RECHARGE =        1265.3348              RECHARGE =           7.6078

            TOTAL IN =        1377.1095              TOTAL IN =           9.6076

          OUT:                                     OUT:
          ----                                     ----
             STORAGE =         498.2680               STORAGE =       8.7287E-02
       CONSTANT HEAD =         293.5429         CONSTANT HEAD =           3.4100
       RIVER LEAKAGE =         582.8110         RIVER LEAKAGE =           6.1104
            RECHARGE =           2.4885              RECHARGE =           0.0000

           TOTAL OUT =        1377.1105             TOTAL OUT =           9.6077

            IN - OUT =      -9.7656E-04              IN - OUT =      -1.4210E-04

 PERCENT DISCREPANCY =          -0.00     PERCENT DISCREPANCY =          -0.00






         TIME SUMMARY AT END OF TIME STEP    1 IN STRESS PERIOD   88
                    SECONDS     MINUTES      HOURS       DAYS        YEARS
                    -----------------------------------------------------------
   TIME STEP LENGTH  86400.      1440.0      24.000      1.0000     2.73785E-03
 STRESS PERIOD TIME  86400.      1440.0      24.000      1.0000     2.73785E-03
         TOTAL TIME 7.60320E+06 1.26720E+05  2112.0      88.000     0.24093    
1
1
                            STRESS PERIOD NO.   89, LENGTH =   1.000000    
                            -----------------------------------------------

                              NUMBER OF TIME STEPS =     1

                               MULTIPLIER FOR DELT =     1.000

                            INITIAL TIME STEP SIZE =   1.000000    

 REUSING NON-PARAMETER RIVER REACHES FROM LAST STRESS PERIOD

      2 RIVER REACHES

                 RECHARGE =  1.149569E-03
 
 SOLVING FOR HEAD 

 OUTPUT CONTROL FOR STRESS PERIOD   89   TIME STEP    1
    SAVE HEAD FOR ALL LAYERS

 HEAD WILL BE SAVED ON UNIT   51 AT END OF TIME STEP    1, STRESS PERIOD   89
1
  VOLUMETRIC BUDGET FOR ENTIRE MODEL AT END OF TIME STEP    1, STRESS PERIOD  89
  ------------------------------------------------------------------------------

     CUMULATIVE VOLUMES      L**3       RATES FOR THIS TIME STEP      L**3/T
     ------------------                 ------------------------

           IN:                                      IN:
           ---                                      ---
             STORAGE =         111.7747               STORAGE =           0.0000
       CONSTANT HEAD =           0.0000         CONSTANT HEAD =           0.0000
       RIVER LEAKAGE =           0.0000         RIVER LEAKAGE =           0.0000
            RECHARGE =        1276.8306              RECHARGE =          11.4957

            TOTAL IN =        1388.6052              TOTAL IN =          11.4957

          OUT:                                     OUT:
          ----                                     ----
             STORAGE =         500.1351               STORAGE =           1.8671
       CONSTANT HEAD =         296.9540         CONSTANT HEAD =           3.4111
       RIVER LEAKAGE =         589.0286         RIVER LEAKAGE =           6.2175
            RECHARGE =           2.4885              RECHARGE =           0.0000

           TOTAL OUT =        1388.6062             TOTAL OUT =          11.4956

            IN - OUT =      -9.7656E-04              IN - OUT =       6.0081E-05

 PERCENT DISCREPANCY =          -0.00     PERCENT DISCREPANCY =           0.00






         TIME SUMMARY AT END OF TIME STEP    1 IN STRESS PERIOD   89
                    SECONDS     MINUTES      HOURS       DAYS        YEARS
                    -----------------------------------------------------------
   TIME STEP LENGTH  86400.      1440.0      24.000      1.0000     2.73785E-03
 STRESS PERIOD TIME  86400.      1440.0      24.000      1.0000     2.73785E-03
         TOTAL TIME 7.68960E+06 1.28160E+05  2136.0      89.000     0.24367    
1
1
                            STRESS PERIOD NO.   90, LENGTH =   1.000000    
                            -----------------------------------------------

                              NUMBER OF TIME STEPS =     1

                               MULTIPLIER FOR DELT =     1.000

                            INITIAL TIME STEP SIZE =   1.000000    

 REUSING NON-PARAMETER RIVER REACHES FROM LAST STRESS PERIOD

      2 RIVER REACHES

                 RECHARGE =  3.250000E-04
 
 SOLVING FOR HEAD 

 OUTPUT CONTROL FOR STRESS PERIOD   90   TIME STEP    1
    SAVE HEAD FOR ALL LAYERS

 HEAD WILL BE SAVED ON UNIT   51 AT END OF TIME STEP    1, STRESS PERIOD   90
1
  VOLUMETRIC BUDGET FOR ENTIRE MODEL AT END OF TIME STEP    1, STRESS PERIOD  90
  ------------------------------------------------------------------------------

     CUMULATIVE VOLUMES      L**3       RATES FOR THIS TIME STEP      L**3/T
     ------------------                 ------------------------

           IN:                                      IN:
           ---                                      ---
             STORAGE =         118.0086               STORAGE =           6.2340
       CONSTANT HEAD =           0.0000         CONSTANT HEAD =           0.0000
       RIVER LEAKAGE =           0.0000         RIVER LEAKAGE =           0.0000
            RECHARGE =        1280.0806              RECHARGE =           3.2500

            TOTAL IN =        1398.0892              TOTAL IN =           9.4840

          OUT:                                     OUT:
          ----                                     ----
             STORAGE =         500.2174               STORAGE =       8.2286E-02
       CONSTANT HEAD =         300.3659         CONSTANT HEAD =           3.4119
       RIVER LEAKAGE =         595.0184         RIVER LEAKAGE =           5.9899
            RECHARGE =           2.4885              RECHARGE =           0.0000

           TOTAL OUT =        1398.0902             TOTAL OUT =           9.4841

            IN - OUT =      -9.7656E-04              IN - OUT =      -9.4414E-05

 PERCENT DISCREPANCY =          -0.00     PERCENT DISCREPANCY =          -0.00






         TIME SUMMARY AT END OF TIME STEP    1 IN STRESS PERIOD   90
                    SECONDS     MINUTES      HOURS       DAYS        YEARS
                    -----------------------------------------------------------
   TIME STEP LENGTH  86400.      1440.0      24.000      1.0000     2.73785E-03
 STRESS PERIOD TIME  86400.      1440.0      24.000      1.0000     2.73785E-03
         TOTAL TIME 7.77600E+06 1.29600E+05  2160.0      90.000     0.24641    
1
1
                            STRESS PERIOD NO.   91, LENGTH =   1.000000    
                            -----------------------------------------------

                              NUMBER OF TIME STEPS =     1

                               MULTIPLIER FOR DELT =     1.000

                            INITIAL TIME STEP SIZE =   1.000000    

 REUSING NON-PARAMETER RIVER REACHES FROM LAST STRESS PERIOD

      2 RIVER REACHES

                 RECHARGE =  5.021552E-04
 
 SOLVING FOR HEAD 

 OUTPUT CONTROL FOR STRESS PERIOD   91   TIME STEP    1
    SAVE HEAD FOR ALL LAYERS

 HEAD WILL BE SAVED ON UNIT   51 AT END OF TIME STEP    1, STRESS PERIOD   91
1
  VOLUMETRIC BUDGET FOR ENTIRE MODEL AT END OF TIME STEP    1, STRESS PERIOD  91
  ------------------------------------------------------------------------------

     CUMULATIVE VOLUMES      L**3       RATES FOR THIS TIME STEP      L**3/T
     ------------------                 ------------------------

           IN:                                      IN:
           ---                                      ---
             STORAGE =         122.3948               STORAGE =           4.3862
       CONSTANT HEAD =           0.0000         CONSTANT HEAD =           0.0000
       RIVER LEAKAGE =           0.0000         RIVER LEAKAGE =           0.0000
            RECHARGE =        1285.1022              RECHARGE =           5.0216

            TOTAL IN =        1407.4969              TOTAL IN =           9.4077

          OUT:                                     OUT:
          ----                                     ----
             STORAGE =         500.2959               STORAGE =       7.8522E-02
       CONSTANT HEAD =         303.7786         CONSTANT HEAD =           3.4127
       RIVER LEAKAGE =         600.9350         RIVER LEAKAGE =           5.9166
            RECHARGE =           2.4885              RECHARGE =           0.0000

           TOTAL OUT =        1407.4980             TOTAL OUT =           9.4078

            IN - OUT =      -1.0986E-03              IN - OUT =      -5.1498E-05

 PERCENT DISCREPANCY =          -0.00     PERCENT DISCREPANCY =          -0.00






         TIME SUMMARY AT END OF TIME STEP    1 IN STRESS PERIOD   91
                    SECONDS     MINUTES      HOURS       DAYS        YEARS
                    -----------------------------------------------------------
   TIME STEP LENGTH  86400.      1440.0      24.000      1.0000     2.73785E-03
 STRESS PERIOD TIME  86400.      1440.0      24.000      1.0000     2.73785E-03
         TOTAL TIME 7.86240E+06 1.31040E+05  2184.0      91.000     0.24914    
1
1
                            STRESS PERIOD NO.   92, LENGTH =   1.000000    
                            -----------------------------------------------

                              NUMBER OF TIME STEPS =     1

                               MULTIPLIER FOR DELT =     1.000

                            INITIAL TIME STEP SIZE =   1.000000    

 REUSING NON-PARAMETER RIVER REACHES FROM LAST STRESS PERIOD

      2 RIVER REACHES

                 RECHARGE =  6.047414E-04
 
 SOLVING FOR HEAD 

 OUTPUT CONTROL FOR STRESS PERIOD   92   TIME STEP    1
    SAVE HEAD FOR ALL LAYERS

 HEAD WILL BE SAVED ON UNIT   51 AT END OF TIME STEP    1, STRESS PERIOD   92
1
  VOLUMETRIC BUDGET FOR ENTIRE MODEL AT END OF TIME STEP    1, STRESS PERIOD  92
  ------------------------------------------------------------------------------

     CUMULATIVE VOLUMES      L**3       RATES FOR THIS TIME STEP      L**3/T
     ------------------                 ------------------------

           IN:                                      IN:
           ---                                      ---
             STORAGE =         125.7240               STORAGE =           3.3292
       CONSTANT HEAD =           0.0000         CONSTANT HEAD =           0.0000
       RIVER LEAKAGE =           0.0000         RIVER LEAKAGE =           0.0000
            RECHARGE =        1291.1495              RECHARGE =           6.0474

            TOTAL IN =        1416.8735              TOTAL IN =           9.3766

          OUT:                                     OUT:
          ----                                     ----
             STORAGE =         500.3714               STORAGE =       7.5491E-02
       CONSTANT HEAD =         307.1920         CONSTANT HEAD =           3.4135
       RIVER LEAKAGE =         606.8225         RIVER LEAKAGE =           5.8875
            RECHARGE =           2.4885              RECHARGE =           0.0000

           TOTAL OUT =        1416.8745             TOTAL OUT =           9.3765

            IN - OUT =      -9.7656E-04              IN - OUT =       1.6689E-04

 PERCENT DISCREPANCY =          -0.00     PERCENT DISCREPANCY =           0.00






         TIME SUMMARY AT END OF TIME STEP    1 IN STRESS PERIOD   92
                    SECONDS     MINUTES      HOURS       DAYS        YEARS
                    -----------------------------------------------------------
   TIME STEP LENGTH  86400.      1440.0      24.000      1.0000     2.73785E-03
 STRESS PERIOD TIME  86400.      1440.0      24.000      1.0000     2.73785E-03
         TOTAL TIME 7.94880E+06 1.32480E+05  2208.0      92.000     0.25188    
1
1
                            STRESS PERIOD NO.   93, LENGTH =   1.000000    
                            -----------------------------------------------

                              NUMBER OF TIME STEPS =     1

                               MULTIPLIER FOR DELT =     1.000

                            INITIAL TIME STEP SIZE =   1.000000    

 REUSING NON-PARAMETER RIVER REACHES FROM LAST STRESS PERIOD

      2 RIVER REACHES

                 RECHARGE =  2.271552E-04
 
 SOLVING FOR HEAD 

 OUTPUT CONTROL FOR STRESS PERIOD   93   TIME STEP    1
    SAVE HEAD FOR ALL LAYERS

 HEAD WILL BE SAVED ON UNIT   51 AT END OF TIME STEP    1, STRESS PERIOD   93
1
  VOLUMETRIC BUDGET FOR ENTIRE MODEL AT END OF TIME STEP    1, STRESS PERIOD  93
  ------------------------------------------------------------------------------

     CUMULATIVE VOLUMES      L**3       RATES FOR THIS TIME STEP      L**3/T
     ------------------                 ------------------------

           IN:                                      IN:
           ---                                      ---
             STORAGE =         132.6564               STORAGE =           6.9324
       CONSTANT HEAD =           0.0000         CONSTANT HEAD =           0.0000
       RIVER LEAKAGE =           0.0000         RIVER LEAKAGE =           0.0000
            RECHARGE =        1293.4211              RECHARGE =           2.2716

            TOTAL IN =        1426.0775              TOTAL IN =           9.2039

          OUT:                                     OUT:
          ----                                     ----
             STORAGE =         500.4416               STORAGE =       7.0227E-02
       CONSTANT HEAD =         310.6061         CONSTANT HEAD =           3.4141
       RIVER LEAKAGE =         612.5422         RIVER LEAKAGE =           5.7197
            RECHARGE =           2.4885              RECHARGE =           0.0000

           TOTAL OUT =        1426.0785             TOTAL OUT =           9.2040

            IN - OUT =      -9.7656E-04              IN - OUT =      -9.0599E-05

 PERCENT DISCREPANCY =          -0.00     PERCENT DISCREPANCY =          -0.00






         TIME SUMMARY AT END OF TIME STEP    1 IN STRESS PERIOD   93
                    SECONDS     MINUTES      HOURS       DAYS        YEARS
                    -----------------------------------------------------------
   TIME STEP LENGTH  86400.      1440.0      24.000      1.0000     2.73785E-03
 STRESS PERIOD TIME  86400.      1440.0      24.000      1.0000     2.73785E-03
         TOTAL TIME 8.03520E+06 1.33920E+05  2232.0      93.000     0.25462    
1
1
                            STRESS PERIOD NO.   94, LENGTH =   1.000000    
                            -----------------------------------------------

                              NUMBER OF TIME STEPS =     1

                               MULTIPLIER FOR DELT =     1.000

                            INITIAL TIME STEP SIZE =   1.000000    

 REUSING NON-PARAMETER RIVER REACHES FROM LAST STRESS PERIOD

      2 RIVER REACHES

                 RECHARGE =  7.310345E-04
 
 SOLVING FOR HEAD 

 OUTPUT CONTROL FOR STRESS PERIOD   94   TIME STEP    1
    SAVE HEAD FOR ALL LAYERS

 HEAD WILL BE SAVED ON UNIT   51 AT END OF TIME STEP    1, STRESS PERIOD   94
1
  VOLUMETRIC BUDGET FOR ENTIRE MODEL AT END OF TIME STEP    1, STRESS PERIOD  94
  ------------------------------------------------------------------------------

     CUMULATIVE VOLUMES      L**3       RATES FOR THIS TIME STEP      L**3/T
     ------------------                 ------------------------

           IN:                                      IN:
           ---                                      ---
             STORAGE =         134.6503               STORAGE =           1.9939
       CONSTANT HEAD =           0.0000         CONSTANT HEAD =           0.0000
       RIVER LEAKAGE =           0.0000         RIVER LEAKAGE =           0.0000
            RECHARGE =        1300.7314              RECHARGE =           7.3103

            TOTAL IN =        1435.3818              TOTAL IN =           9.3043

          OUT:                                     OUT:
          ----                                     ----
             STORAGE =         500.5521               STORAGE =           0.1105
       CONSTANT HEAD =         314.0208         CONSTANT HEAD =           3.4148
       RIVER LEAKAGE =         618.3214         RIVER LEAKAGE =           5.7792
            RECHARGE =           2.4885              RECHARGE =           0.0000

           TOTAL OUT =        1435.3828             TOTAL OUT =           9.3044

            IN - OUT =      -9.7656E-04              IN - OUT =      -8.2970E-05

 PERCENT DISCREPANCY =          -0.00     PERCENT DISCREPANCY =          -0.00






         TIME SUMMARY AT END OF TIME STEP    1 IN STRESS PERIOD   94
                    SECONDS     MINUTES      HOURS       DAYS        YEARS
                    -----------------------------------------------------------
   TIME STEP LENGTH  86400.      1440.0      24.000      1.0000     2.73785E-03
 STRESS PERIOD TIME  86400.      1440.0      24.000      1.0000     2.73785E-03
         TOTAL TIME 8.12160E+06 1.35360E+05  2256.0      94.000     0.25736    
1
1
                            STRESS PERIOD NO.   95, LENGTH =   1.000000    
                            -----------------------------------------------

                              NUMBER OF TIME STEPS =     1

                               MULTIPLIER FOR DELT =     1.000

                            INITIAL TIME STEP SIZE =   1.000000    

 REUSING NON-PARAMETER RIVER REACHES FROM LAST STRESS PERIOD

      2 RIVER REACHES

                 RECHARGE =  1.543103E-04
 
 SOLVING FOR HEAD 

 OUTPUT CONTROL FOR STRESS PERIOD   95   TIME STEP    1
    SAVE HEAD FOR ALL LAYERS

 HEAD WILL BE SAVED ON UNIT   51 AT END OF TIME STEP    1, STRESS PERIOD   95
1
  VOLUMETRIC BUDGET FOR ENTIRE MODEL AT END OF TIME STEP    1, STRESS PERIOD  95
  ------------------------------------------------------------------------------

     CUMULATIVE VOLUMES      L**3       RATES FOR THIS TIME STEP      L**3/T
     ------------------                 ------------------------

           IN:                                      IN:
           ---                                      ---
             STORAGE =         142.1745               STORAGE =           7.5242
       CONSTANT HEAD =           0.0000         CONSTANT HEAD =           0.0000
       RIVER LEAKAGE =           0.0000         RIVER LEAKAGE =           0.0000
            RECHARGE =        1302.2745              RECHARGE =           1.5431

            TOTAL IN =        1444.4490              TOTAL IN =           9.0673

          OUT:                                     OUT:
          ----                                     ----
             STORAGE =         500.6147               STORAGE =       6.2639E-02
       CONSTANT HEAD =         317.4361         CONSTANT HEAD =           3.4152
       RIVER LEAKAGE =         623.9108         RIVER LEAKAGE =           5.5893
            RECHARGE =           2.4885              RECHARGE =           0.0000

           TOTAL OUT =        1444.4502             TOTAL OUT =           9.0672

            IN - OUT =      -1.2207E-03              IN - OUT =       4.8637E-05

 PERCENT DISCREPANCY =          -0.00     PERCENT DISCREPANCY =           0.00






         TIME SUMMARY AT END OF TIME STEP    1 IN STRESS PERIOD   95
                    SECONDS     MINUTES      HOURS       DAYS        YEARS
                    -----------------------------------------------------------
   TIME STEP LENGTH  86400.      1440.0      24.000      1.0000     2.73785E-03
 STRESS PERIOD TIME  86400.      1440.0      24.000      1.0000     2.73785E-03
         TOTAL TIME 8.20800E+06 1.36800E+05  2280.0      95.000     0.26010    
1
1
                            STRESS PERIOD NO.   96, LENGTH =   1.000000    
                            -----------------------------------------------

                              NUMBER OF TIME STEPS =     1

                               MULTIPLIER FOR DELT =     1.000

                            INITIAL TIME STEP SIZE =   1.000000    

 REUSING NON-PARAMETER RIVER REACHES FROM LAST STRESS PERIOD

      2 RIVER REACHES

                 RECHARGE =  1.034483E-04
 
 SOLVING FOR HEAD 

 OUTPUT CONTROL FOR STRESS PERIOD   96   TIME STEP    1
    SAVE HEAD FOR ALL LAYERS

 HEAD WILL BE SAVED ON UNIT   51 AT END OF TIME STEP    1, STRESS PERIOD   96
1
  VOLUMETRIC BUDGET FOR ENTIRE MODEL AT END OF TIME STEP    1, STRESS PERIOD  96
  ------------------------------------------------------------------------------

     CUMULATIVE VOLUMES      L**3       RATES FOR THIS TIME STEP      L**3/T
     ------------------                 ------------------------

           IN:                                      IN:
           ---                                      ---
             STORAGE =         150.0569               STORAGE =           7.8825
       CONSTANT HEAD =           0.0000         CONSTANT HEAD =           0.0000
       RIVER LEAKAGE =           0.0000         RIVER LEAKAGE =           0.0000
            RECHARGE =        1303.3090              RECHARGE =           1.0345

            TOTAL IN =        1453.3660              TOTAL IN =           8.9169

          OUT:                                     OUT:
          ----                                     ----
             STORAGE =         500.6717               STORAGE =       5.6950E-02
       CONSTANT HEAD =         320.8517         CONSTANT HEAD =           3.4156
       RIVER LEAKAGE =         629.3549         RIVER LEAKAGE =           5.4442
            RECHARGE =           2.4885              RECHARGE =           0.0000

           TOTAL OUT =        1453.3669             TOTAL OUT =           8.9168

            IN - OUT =      -9.7656E-04              IN - OUT =       1.9741E-04

 PERCENT DISCREPANCY =          -0.00     PERCENT DISCREPANCY =           0.00






         TIME SUMMARY AT END OF TIME STEP    1 IN STRESS PERIOD   96
                    SECONDS     MINUTES      HOURS       DAYS        YEARS
                    -----------------------------------------------------------
   TIME STEP LENGTH  86400.      1440.0      24.000      1.0000     2.73785E-03
 STRESS PERIOD TIME  86400.      1440.0      24.000      1.0000     2.73785E-03
         TOTAL TIME 8.29440E+06 1.38240E+05  2304.0      96.000     0.26283    
1
1
                            STRESS PERIOD NO.   97, LENGTH =   1.000000    
                            -----------------------------------------------

                              NUMBER OF TIME STEPS =     1

                               MULTIPLIER FOR DELT =     1.000

                            INITIAL TIME STEP SIZE =   1.000000    

 REUSING NON-PARAMETER RIVER REACHES FROM LAST STRESS PERIOD

      2 RIVER REACHES

                 RECHARGE =  4.413793E-04
 
 SOLVING FOR HEAD 

 OUTPUT CONTROL FOR STRESS PERIOD   97   TIME STEP    1
    SAVE HEAD FOR ALL LAYERS

 HEAD WILL BE SAVED ON UNIT   51 AT END OF TIME STEP    1, STRESS PERIOD   97
1
  VOLUMETRIC BUDGET FOR ENTIRE MODEL AT END OF TIME STEP    1, STRESS PERIOD  97
  ------------------------------------------------------------------------------

     CUMULATIVE VOLUMES      L**3       RATES FOR THIS TIME STEP      L**3/T
     ------------------                 ------------------------

           IN:                                      IN:
           ---                                      ---
             STORAGE =         154.5602               STORAGE =           4.5033
       CONSTANT HEAD =           0.0000         CONSTANT HEAD =           0.0000
       RIVER LEAKAGE =           0.0000         RIVER LEAKAGE =           0.0000
            RECHARGE =        1307.7228              RECHARGE =           4.4138

            TOTAL IN =        1462.2830              TOTAL IN =           8.9170

          OUT:                                     OUT:
          ----                                     ----
             STORAGE =         500.7253               STORAGE =       5.3646E-02
       CONSTANT HEAD =         324.2677         CONSTANT HEAD =           3.4160
       RIVER LEAKAGE =         634.8021         RIVER LEAKAGE =           5.4472
            RECHARGE =           2.4885              RECHARGE =           0.0000

           TOTAL OUT =        1462.2837             TOTAL OUT =           8.9169

            IN - OUT =      -7.3242E-04              IN - OUT =       1.6689E-04

 PERCENT DISCREPANCY =          -0.00     PERCENT DISCREPANCY =           0.00






         TIME SUMMARY AT END OF TIME STEP    1 IN STRESS PERIOD   97
                    SECONDS     MINUTES      HOURS       DAYS        YEARS
                    -----------------------------------------------------------
   TIME STEP LENGTH  86400.      1440.0      24.000      1.0000     2.73785E-03
 STRESS PERIOD TIME  86400.      1440.0      24.000      1.0000     2.73785E-03
         TOTAL TIME 8.38080E+06 1.39680E+05  2328.0      97.000     0.26557    
1
1
                            STRESS PERIOD NO.   98, LENGTH =   1.000000    
                            -----------------------------------------------

                              NUMBER OF TIME STEPS =     1

                               MULTIPLIER FOR DELT =     1.000

                            INITIAL TIME STEP SIZE =   1.000000    

 REUSING NON-PARAMETER RIVER REACHES FROM LAST STRESS PERIOD

      2 RIVER REACHES

                 RECHARGE =  2.745690E-04
 
 SOLVING FOR HEAD 

 OUTPUT CONTROL FOR STRESS PERIOD   98   TIME STEP    1
    SAVE HEAD FOR ALL LAYERS

 HEAD WILL BE SAVED ON UNIT   51 AT END OF TIME STEP    1, STRESS PERIOD   98
1
  VOLUMETRIC BUDGET FOR ENTIRE MODEL AT END OF TIME STEP    1, STRESS PERIOD  98
  ------------------------------------------------------------------------------

     CUMULATIVE VOLUMES      L**3       RATES FOR THIS TIME STEP      L**3/T
     ------------------                 ------------------------

           IN:                                      IN:
           ---                                      ---
             STORAGE =         160.6422               STORAGE =           6.0820
       CONSTANT HEAD =           0.0000         CONSTANT HEAD =           0.0000
       RIVER LEAKAGE =           0.0000         RIVER LEAKAGE =           0.0000
            RECHARGE =        1310.4685              RECHARGE =           2.7457

            TOTAL IN =        1471.1107              TOTAL IN =           8.8277

          OUT:                                     OUT:
          ----                                     ----
             STORAGE =         500.7744               STORAGE =       4.9107E-02
       CONSTANT HEAD =         327.6841         CONSTANT HEAD =           3.4163
       RIVER LEAKAGE =         640.1643         RIVER LEAKAGE =           5.3622
            RECHARGE =           2.4885              RECHARGE =           0.0000

           TOTAL OUT =        1471.1113             TOTAL OUT =           8.8276

            IN - OUT =      -6.1035E-04              IN - OUT =       4.3869E-05

 PERCENT DISCREPANCY =          -0.00     PERCENT DISCREPANCY =           0.00






         TIME SUMMARY AT END OF TIME STEP    1 IN STRESS PERIOD   98
                    SECONDS     MINUTES      HOURS       DAYS        YEARS
                    -----------------------------------------------------------
   TIME STEP LENGTH  86400.      1440.0      24.000      1.0000     2.73785E-03
 STRESS PERIOD TIME  86400.      1440.0      24.000      1.0000     2.73785E-03
         TOTAL TIME 8.46720E+06 1.41120E+05  2352.0      98.000     0.26831    
1
1
                            STRESS PERIOD NO.   99, LENGTH =   1.000000    
                            -----------------------------------------------

                              NUMBER OF TIME STEPS =     1

                               MULTIPLIER FOR DELT =     1.000

                            INITIAL TIME STEP SIZE =   1.000000    

 REUSING NON-PARAMETER RIVER REACHES FROM LAST STRESS PERIOD

      2 RIVER REACHES

                 RECHARGE =  1.668104E-04
 
 SOLVING FOR HEAD 

 OUTPUT CONTROL FOR STRESS PERIOD   99   TIME STEP    1
    SAVE HEAD FOR ALL LAYERS

 HEAD WILL BE SAVED ON UNIT   51 AT END OF TIME STEP    1, STRESS PERIOD   99
1
  VOLUMETRIC BUDGET FOR ENTIRE MODEL AT END OF TIME STEP    1, STRESS PERIOD  99
  ------------------------------------------------------------------------------

     CUMULATIVE VOLUMES      L**3       RATES FOR THIS TIME STEP      L**3/T
     ------------------                 ------------------------

           IN:                                      IN:
           ---                                      ---
             STORAGE =         167.6891               STORAGE =           7.0470
       CONSTANT HEAD =           0.0000         CONSTANT HEAD =           0.0000
       RIVER LEAKAGE =           0.0000         RIVER LEAKAGE =           0.0000
            RECHARGE =        1312.1366              RECHARGE =           1.6681

            TOTAL IN =        1479.8257              TOTAL IN =           8.7151

          OUT:                                     OUT:
          ----                                     ----
             STORAGE =         500.8186               STORAGE =       4.4135E-02
       CONSTANT HEAD =         331.1007         CONSTANT HEAD =           3.4166
       RIVER LEAKAGE =         645.4185         RIVER LEAKAGE =           5.2542
            RECHARGE =           2.4885              RECHARGE =           0.0000

           TOTAL OUT =        1479.8263             TOTAL OUT =           8.7150

            IN - OUT =      -6.1035E-04              IN - OUT =       9.9182E-05

 PERCENT DISCREPANCY =          -0.00     PERCENT DISCREPANCY =           0.00






         TIME SUMMARY AT END OF TIME STEP    1 IN STRESS PERIOD   99
                    SECONDS     MINUTES      HOURS       DAYS        YEARS
                    -----------------------------------------------------------
   TIME STEP LENGTH  86400.      1440.0      24.000      1.0000     2.73785E-03
 STRESS PERIOD TIME  86400.      1440.0      24.000      1.0000     2.73785E-03
         TOTAL TIME 8.55360E+06 1.42560E+05  2376.0      99.000     0.27105    
1
1
                            STRESS PERIOD NO.  100, LENGTH =   1.000000    
                            -----------------------------------------------

                              NUMBER OF TIME STEPS =     1

                               MULTIPLIER FOR DELT =     1.000

                            INITIAL TIME STEP SIZE =   1.000000    

 REUSING NON-PARAMETER RIVER REACHES FROM LAST STRESS PERIOD

      2 RIVER REACHES

                 RECHARGE =  2.659483E-04
 
 SOLVING FOR HEAD 

 OUTPUT CONTROL FOR STRESS PERIOD  100   TIME STEP    1
    SAVE HEAD FOR ALL LAYERS

 HEAD WILL BE SAVED ON UNIT   51 AT END OF TIME STEP    1, STRESS PERIOD  100
1
  VOLUMETRIC BUDGET FOR ENTIRE MODEL AT END OF TIME STEP    1, STRESS PERIOD 100
  ------------------------------------------------------------------------------

     CUMULATIVE VOLUMES      L**3       RATES FOR THIS TIME STEP      L**3/T
     ------------------                 ------------------------

           IN:                                      IN:
           ---                                      ---
             STORAGE =         173.6880               STORAGE =           5.9989
       CONSTANT HEAD =           0.0000         CONSTANT HEAD =           0.0000
       RIVER LEAKAGE =           0.0000         RIVER LEAKAGE =           0.0000
            RECHARGE =        1314.7960              RECHARGE =           2.6595

            TOTAL IN =        1488.4840              TOTAL IN =           8.6583

          OUT:                                     OUT:
          ----                                     ----
             STORAGE =         500.8585               STORAGE =       3.9919E-02
       CONSTANT HEAD =         334.5175         CONSTANT HEAD =           3.4168
       RIVER LEAKAGE =         650.6200         RIVER LEAKAGE =           5.2015
            RECHARGE =           2.4885              RECHARGE =           0.0000

           TOTAL OUT =        1488.4845             TOTAL OUT =           8.6582

            IN - OUT =      -4.8828E-04              IN - OUT =       1.7834E-04

 PERCENT DISCREPANCY =          -0.00     PERCENT DISCREPANCY =           0.00






         TIME SUMMARY AT END OF TIME STEP    1 IN STRESS PERIOD  100
                    SECONDS     MINUTES      HOURS       DAYS        YEARS
                    -----------------------------------------------------------
   TIME STEP LENGTH  86400.      1440.0      24.000      1.0000     2.73785E-03
 STRESS PERIOD TIME  86400.      1440.0      24.000      1.0000     2.73785E-03
         TOTAL TIME 8.64000E+06 1.44000E+05  2400.0      100.00     0.27379    
1
1
                            STRESS PERIOD NO.  101, LENGTH =   1.000000    
                            -----------------------------------------------

                              NUMBER OF TIME STEPS =     1

                               MULTIPLIER FOR DELT =     1.000

                            INITIAL TIME STEP SIZE =   1.000000    

 REUSING NON-PARAMETER RIVER REACHES FROM LAST STRESS PERIOD

      2 RIVER REACHES

                 RECHARGE =  2.293103E-04
 
 SOLVING FOR HEAD 

 OUTPUT CONTROL FOR STRESS PERIOD  101   TIME STEP    1
    SAVE HEAD FOR ALL LAYERS

 HEAD WILL BE SAVED ON UNIT   51 AT END OF TIME STEP    1, STRESS PERIOD  101
1
  VOLUMETRIC BUDGET FOR ENTIRE MODEL AT END OF TIME STEP    1, STRESS PERIOD 101
  ------------------------------------------------------------------------------

     CUMULATIVE VOLUMES      L**3       RATES FOR THIS TIME STEP      L**3/T
     ------------------                 ------------------------

           IN:                                      IN:
           ---                                      ---
             STORAGE =         179.9795               STORAGE =           6.2916
       CONSTANT HEAD =           0.0000         CONSTANT HEAD =           0.0000
       RIVER LEAKAGE =           0.0000         RIVER LEAKAGE =           0.0000
            RECHARGE =        1317.0891              RECHARGE =           2.2931

            TOTAL IN =        1497.0686              TOTAL IN =           8.5847

          OUT:                                     OUT:
          ----                                     ----
             STORAGE =         500.8941               STORAGE =       3.5616E-02
       CONSTANT HEAD =         337.9344         CONSTANT HEAD =           3.4169
       RIVER LEAKAGE =         655.7521         RIVER LEAKAGE =           5.1322
            RECHARGE =           2.4885              RECHARGE =           0.0000

           TOTAL OUT =        1497.0691             TOTAL OUT =           8.5847

            IN - OUT =      -4.8828E-04              IN - OUT =      -2.9564E-05

 PERCENT DISCREPANCY =          -0.00     PERCENT DISCREPANCY =          -0.00






         TIME SUMMARY AT END OF TIME STEP    1 IN STRESS PERIOD  101
                    SECONDS     MINUTES      HOURS       DAYS        YEARS
                    -----------------------------------------------------------
   TIME STEP LENGTH  86400.      1440.0      24.000      1.0000     2.73785E-03
 STRESS PERIOD TIME  86400.      1440.0      24.000      1.0000     2.73785E-03
         TOTAL TIME 8.72640E+06 1.45440E+05  2424.0      101.00     0.27652    
1
1
                            STRESS PERIOD NO.  102, LENGTH =   1.000000    
                            -----------------------------------------------

                              NUMBER OF TIME STEPS =     1

                               MULTIPLIER FOR DELT =     1.000

                            INITIAL TIME STEP SIZE =   1.000000    

 REUSING NON-PARAMETER RIVER REACHES FROM LAST STRESS PERIOD

      2 RIVER REACHES

                 RECHARGE = -1.103017E-03
 
 SOLVING FOR HEAD 

 OUTPUT CONTROL FOR STRESS PERIOD  102   TIME STEP    1
    SAVE HEAD FOR ALL LAYERS

 HEAD WILL BE SAVED ON UNIT   51 AT END OF TIME STEP    1, STRESS PERIOD  102
1
  VOLUMETRIC BUDGET FOR ENTIRE MODEL AT END OF TIME STEP    1, STRESS PERIOD 102
  ------------------------------------------------------------------------------

     CUMULATIVE VOLUMES      L**3       RATES FOR THIS TIME STEP      L**3/T
     ------------------                 ------------------------

           IN:                                      IN:
           ---                                      ---
             STORAGE =         199.0509               STORAGE =          19.0714
       CONSTANT HEAD =           0.0000         CONSTANT HEAD =           0.0000
       RIVER LEAKAGE =           0.0000         RIVER LEAKAGE =           0.0000
            RECHARGE =        1317.0891              RECHARGE =           0.0000

            TOTAL IN =        1516.1400              TOTAL IN =          19.0714

          OUT:                                     OUT:
          ----                                     ----
             STORAGE =         500.9179               STORAGE =       2.3842E-02
       CONSTANT HEAD =         341.3509         CONSTANT HEAD =           3.4165
       RIVER LEAKAGE =         660.3530         RIVER LEAKAGE =           4.6008
            RECHARGE =          13.5187              RECHARGE =          11.0302

           TOTAL OUT =        1516.1405             TOTAL OUT =          19.0714

            IN - OUT =      -4.8828E-04              IN - OUT =      -1.3351E-05

 PERCENT DISCREPANCY =          -0.00     PERCENT DISCREPANCY =          -0.00






         TIME SUMMARY AT END OF TIME STEP    1 IN STRESS PERIOD  102
                    SECONDS     MINUTES      HOURS       DAYS        YEARS
                    -----------------------------------------------------------
   TIME STEP LENGTH  86400.      1440.0      24.000      1.0000     2.73785E-03
 STRESS PERIOD TIME  86400.      1440.0      24.000      1.0000     2.73785E-03
         TOTAL TIME 8.81280E+06 1.46880E+05  2448.0      102.00     0.27926    
1
1
                            STRESS PERIOD NO.  103, LENGTH =   1.000000    
                            -----------------------------------------------

                              NUMBER OF TIME STEPS =     1

                               MULTIPLIER FOR DELT =     1.000

                            INITIAL TIME STEP SIZE =   1.000000    

 REUSING NON-PARAMETER RIVER REACHES FROM LAST STRESS PERIOD

      2 RIVER REACHES

                 RECHARGE = -7.112069E-04
 
 SOLVING FOR HEAD 

 OUTPUT CONTROL FOR STRESS PERIOD  103   TIME STEP    1
    SAVE HEAD FOR ALL LAYERS

 HEAD WILL BE SAVED ON UNIT   51 AT END OF TIME STEP    1, STRESS PERIOD  103
1
  VOLUMETRIC BUDGET FOR ENTIRE MODEL AT END OF TIME STEP    1, STRESS PERIOD 103
  ------------------------------------------------------------------------------

     CUMULATIVE VOLUMES      L**3       RATES FOR THIS TIME STEP      L**3/T
     ------------------                 ------------------------

           IN:                                      IN:
           ---                                      ---
             STORAGE =         213.9807               STORAGE =          14.9298
       CONSTANT HEAD =           0.0000         CONSTANT HEAD =           0.0000
       RIVER LEAKAGE =           0.0000         RIVER LEAKAGE =           0.0000
            RECHARGE =        1317.0891              RECHARGE =           0.0000

            TOTAL IN =        1531.0698              TOTAL IN =          14.9298

          OUT:                                     OUT:
          ----                                     ----
             STORAGE =         500.9337               STORAGE =       1.5810E-02
       CONSTANT HEAD =         344.7669         CONSTANT HEAD =           3.4160
       RIVER LEAKAGE =         664.7390         RIVER LEAKAGE =           4.3860
            RECHARGE =          20.6307              RECHARGE =           7.1121

           TOTAL OUT =        1531.0704             TOTAL OUT =          14.9299

            IN - OUT =      -6.1035E-04              IN - OUT =      -6.3896E-05

 PERCENT DISCREPANCY =          -0.00     PERCENT DISCREPANCY =          -0.00






         TIME SUMMARY AT END OF TIME STEP    1 IN STRESS PERIOD  103
                    SECONDS     MINUTES      HOURS       DAYS        YEARS
                    -----------------------------------------------------------
   TIME STEP LENGTH  86400.      1440.0      24.000      1.0000     2.73785E-03
 STRESS PERIOD TIME  86400.      1440.0      24.000      1.0000     2.73785E-03
         TOTAL TIME 8.89920E+06 1.48320E+05  2472.0      103.00     0.28200    
1
1
                            STRESS PERIOD NO.  104, LENGTH =   1.000000    
                            -----------------------------------------------

                              NUMBER OF TIME STEPS =     1

                               MULTIPLIER FOR DELT =     1.000

                            INITIAL TIME STEP SIZE =   1.000000    

 REUSING NON-PARAMETER RIVER REACHES FROM LAST STRESS PERIOD

      2 RIVER REACHES

                 RECHARGE =  9.827586E-05
 
 SOLVING FOR HEAD 

 OUTPUT CONTROL FOR STRESS PERIOD  104   TIME STEP    1
    SAVE HEAD FOR ALL LAYERS

 HEAD WILL BE SAVED ON UNIT   51 AT END OF TIME STEP    1, STRESS PERIOD  104
1
  VOLUMETRIC BUDGET FOR ENTIRE MODEL AT END OF TIME STEP    1, STRESS PERIOD 104
  ------------------------------------------------------------------------------

     CUMULATIVE VOLUMES      L**3       RATES FOR THIS TIME STEP      L**3/T
     ------------------                 ------------------------

           IN:                                      IN:
           ---                                      ---
             STORAGE =         220.9354               STORAGE =           6.9547
       CONSTANT HEAD =           0.0000         CONSTANT HEAD =           0.0000
       RIVER LEAKAGE =           0.0000         RIVER LEAKAGE =           0.0000
            RECHARGE =        1318.0719              RECHARGE =           0.9828

            TOTAL IN =        1539.0073              TOTAL IN =           7.9375

          OUT:                                     OUT:
          ----                                     ----
             STORAGE =         500.9835               STORAGE =       4.9738E-02
       CONSTANT HEAD =         348.1826         CONSTANT HEAD =           3.4157
       RIVER LEAKAGE =         669.2110         RIVER LEAKAGE =           4.4720
            RECHARGE =          20.6307              RECHARGE =           0.0000

           TOTAL OUT =        1539.0079             TOTAL OUT =           7.9374

            IN - OUT =      -6.1035E-04              IN - OUT =       1.9073E-05

 PERCENT DISCREPANCY =          -0.00     PERCENT DISCREPANCY =           0.00






         TIME SUMMARY AT END OF TIME STEP    1 IN STRESS PERIOD  104
                    SECONDS     MINUTES      HOURS       DAYS        YEARS
                    -----------------------------------------------------------
   TIME STEP LENGTH  86400.      1440.0      24.000      1.0000     2.73785E-03
 STRESS PERIOD TIME  86400.      1440.0      24.000      1.0000     2.73785E-03
         TOTAL TIME 8.98560E+06 1.49760E+05  2496.0      104.00     0.28474    
1
1
                            STRESS PERIOD NO.  105, LENGTH =   1.000000    
                            -----------------------------------------------

                              NUMBER OF TIME STEPS =     1

                               MULTIPLIER FOR DELT =     1.000

                            INITIAL TIME STEP SIZE =   1.000000    

 REUSING NON-PARAMETER RIVER REACHES FROM LAST STRESS PERIOD

      2 RIVER REACHES

                 RECHARGE =  7.801724E-05
 
 SOLVING FOR HEAD 

 OUTPUT CONTROL FOR STRESS PERIOD  105   TIME STEP    1
    SAVE HEAD FOR ALL LAYERS

 HEAD WILL BE SAVED ON UNIT   51 AT END OF TIME STEP    1, STRESS PERIOD  105
1
  VOLUMETRIC BUDGET FOR ENTIRE MODEL AT END OF TIME STEP    1, STRESS PERIOD 105
  ------------------------------------------------------------------------------

     CUMULATIVE VOLUMES      L**3       RATES FOR THIS TIME STEP      L**3/T
     ------------------                 ------------------------

           IN:                                      IN:
           ---                                      ---
             STORAGE =         228.0422               STORAGE =           7.1068
       CONSTANT HEAD =           0.0000         CONSTANT HEAD =           0.0000
       RIVER LEAKAGE =           0.0000         RIVER LEAKAGE =           0.0000
            RECHARGE =        1318.8521              RECHARGE =           0.7802

            TOTAL IN =        1546.8943              TOTAL IN =           7.8869

          OUT:                                     OUT:
          ----                                     ----
             STORAGE =         500.9919               STORAGE =       8.4572E-03
       CONSTANT HEAD =         351.5979         CONSTANT HEAD =           3.4153
       RIVER LEAKAGE =         673.6741         RIVER LEAKAGE =           4.4631
            RECHARGE =          20.6307              RECHARGE =           0.0000

           TOTAL OUT =        1546.8947             TOTAL OUT =           7.8869

            IN - OUT =      -3.6621E-04              IN - OUT =       5.1022E-05

 PERCENT DISCREPANCY =          -0.00     PERCENT DISCREPANCY =           0.00






         TIME SUMMARY AT END OF TIME STEP    1 IN STRESS PERIOD  105
                    SECONDS     MINUTES      HOURS       DAYS        YEARS
                    -----------------------------------------------------------
   TIME STEP LENGTH  86400.      1440.0      24.000      1.0000     2.73785E-03
 STRESS PERIOD TIME  86400.      1440.0      24.000      1.0000     2.73785E-03
         TOTAL TIME 9.07200E+06 1.51200E+05  2520.0      105.00     0.28747    
1
1
                            STRESS PERIOD NO.  106, LENGTH =   1.000000    
                            -----------------------------------------------

                              NUMBER OF TIME STEPS =     1

                               MULTIPLIER FOR DELT =     1.000

                            INITIAL TIME STEP SIZE =   1.000000    

 REUSING NON-PARAMETER RIVER REACHES FROM LAST STRESS PERIOD

      2 RIVER REACHES

                 RECHARGE = -2.939655E-04
 
 SOLVING FOR HEAD 

 OUTPUT CONTROL FOR STRESS PERIOD  106   TIME STEP    1
    SAVE HEAD FOR ALL LAYERS

 HEAD WILL BE SAVED ON UNIT   51 AT END OF TIME STEP    1, STRESS PERIOD  106
1
  VOLUMETRIC BUDGET FOR ENTIRE MODEL AT END OF TIME STEP    1, STRESS PERIOD 106
  ------------------------------------------------------------------------------

     CUMULATIVE VOLUMES      L**3       RATES FOR THIS TIME STEP      L**3/T
     ------------------                 ------------------------

           IN:                                      IN:
           ---                                      ---
             STORAGE =         238.7019               STORAGE =          10.6597
       CONSTANT HEAD =           0.0000         CONSTANT HEAD =           0.0000
       RIVER LEAKAGE =           0.0000         RIVER LEAKAGE =           0.0000
            RECHARGE =        1318.8521              RECHARGE =           0.0000

            TOTAL IN =        1557.5540              TOTAL IN =          10.6597

          OUT:                                     OUT:
          ----                                     ----
             STORAGE =         500.9962               STORAGE =       4.2820E-03
       CONSTANT HEAD =         355.0127         CONSTANT HEAD =           3.4148
       RIVER LEAKAGE =         677.9751         RIVER LEAKAGE =           4.3010
            RECHARGE =          23.5704              RECHARGE =           2.9397

           TOTAL OUT =        1557.5544             TOTAL OUT =          10.6597

            IN - OUT =      -4.8828E-04              IN - OUT =       2.5749E-05

 PERCENT DISCREPANCY =          -0.00     PERCENT DISCREPANCY =           0.00






         TIME SUMMARY AT END OF TIME STEP    1 IN STRESS PERIOD  106
                    SECONDS     MINUTES      HOURS       DAYS        YEARS
                    -----------------------------------------------------------
   TIME STEP LENGTH  86400.      1440.0      24.000      1.0000     2.73785E-03
 STRESS PERIOD TIME  86400.      1440.0      24.000      1.0000     2.73785E-03
         TOTAL TIME 9.15840E+06 1.52640E+05  2544.0      106.00     0.29021    
1
1
                            STRESS PERIOD NO.  107, LENGTH =   1.000000    
                            -----------------------------------------------

                              NUMBER OF TIME STEPS =     1

                               MULTIPLIER FOR DELT =     1.000

                            INITIAL TIME STEP SIZE =   1.000000    

 REUSING NON-PARAMETER RIVER REACHES FROM LAST STRESS PERIOD

      2 RIVER REACHES

                 RECHARGE = -2.797414E-04
 
 SOLVING FOR HEAD 

 OUTPUT CONTROL FOR STRESS PERIOD  107   TIME STEP    1
    SAVE HEAD FOR ALL LAYERS

 HEAD WILL BE SAVED ON UNIT   51 AT END OF TIME STEP    1, STRESS PERIOD  107
1
  VOLUMETRIC BUDGET FOR ENTIRE MODEL AT END OF TIME STEP    1, STRESS PERIOD 107
  ------------------------------------------------------------------------------

     CUMULATIVE VOLUMES      L**3       RATES FOR THIS TIME STEP      L**3/T
     ------------------                 ------------------------

           IN:                                      IN:
           ---                                      ---
             STORAGE =         249.0984               STORAGE =          10.3965
       CONSTANT HEAD =           0.0000         CONSTANT HEAD =           0.0000
       RIVER LEAKAGE =           0.0000         RIVER LEAKAGE =           0.0000
            RECHARGE =        1318.8521              RECHARGE =           0.0000

            TOTAL IN =        1567.9504              TOTAL IN =          10.3965

          OUT:                                     OUT:
          ----                                     ----
             STORAGE =         500.9975               STORAGE =       1.2455E-03
       CONSTANT HEAD =         358.4269         CONSTANT HEAD =           3.4142
       RIVER LEAKAGE =         682.1586         RIVER LEAKAGE =           4.1835
            RECHARGE =          26.3678              RECHARGE =           2.7974

           TOTAL OUT =        1567.9508             TOTAL OUT =          10.3963

            IN - OUT =      -3.6621E-04              IN - OUT =       2.0027E-04

 PERCENT DISCREPANCY =          -0.00     PERCENT DISCREPANCY =           0.00






         TIME SUMMARY AT END OF TIME STEP    1 IN STRESS PERIOD  107
                    SECONDS     MINUTES      HOURS       DAYS        YEARS
                    -----------------------------------------------------------
   TIME STEP LENGTH  86400.      1440.0      24.000      1.0000     2.73785E-03
 STRESS PERIOD TIME  86400.      1440.0      24.000      1.0000     2.73785E-03
         TOTAL TIME 9.24480E+06 1.54080E+05  2568.0      107.00     0.29295    
1
1
                            STRESS PERIOD NO.  108, LENGTH =   1.000000    
                            -----------------------------------------------

                              NUMBER OF TIME STEPS =     1

                               MULTIPLIER FOR DELT =     1.000

                            INITIAL TIME STEP SIZE =   1.000000    

 REUSING NON-PARAMETER RIVER REACHES FROM LAST STRESS PERIOD

      2 RIVER REACHES

                 RECHARGE =  2.452586E-04
 
 SOLVING FOR HEAD 

 OUTPUT CONTROL FOR STRESS PERIOD  108   TIME STEP    1
    SAVE HEAD FOR ALL LAYERS

 HEAD WILL BE SAVED ON UNIT   51 AT END OF TIME STEP    1, STRESS PERIOD  108
1
  VOLUMETRIC BUDGET FOR ENTIRE MODEL AT END OF TIME STEP    1, STRESS PERIOD 108
  ------------------------------------------------------------------------------

     CUMULATIVE VOLUMES      L**3       RATES FOR THIS TIME STEP      L**3/T
     ------------------                 ------------------------

           IN:                                      IN:
           ---                                      ---
             STORAGE =         254.3850               STORAGE =           5.2866
       CONSTANT HEAD =           0.0000         CONSTANT HEAD =           0.0000
       RIVER LEAKAGE =           0.0000         RIVER LEAKAGE =           0.0000
            RECHARGE =        1321.3047              RECHARGE =           2.4526

            TOTAL IN =        1575.6897              TOTAL IN =           7.7392

          OUT:                                     OUT:
          ----                                     ----
             STORAGE =         501.0602               STORAGE =       6.2783E-02
       CONSTANT HEAD =         361.8406         CONSTANT HEAD =           3.4137
       RIVER LEAKAGE =         686.4210         RIVER LEAKAGE =           4.2625
            RECHARGE =          26.3678              RECHARGE =           0.0000

           TOTAL OUT =        1575.6897             TOTAL OUT =           7.7389

            IN - OUT =           0.0000              IN - OUT =       2.4796E-04

 PERCENT DISCREPANCY =           0.00     PERCENT DISCREPANCY =           0.00






         TIME SUMMARY AT END OF TIME STEP    1 IN STRESS PERIOD  108
                    SECONDS     MINUTES      HOURS       DAYS        YEARS
                    -----------------------------------------------------------
   TIME STEP LENGTH  86400.      1440.0      24.000      1.0000     2.73785E-03
 STRESS PERIOD TIME  86400.      1440.0      24.000      1.0000     2.73785E-03
         TOTAL TIME 9.33120E+06 1.55520E+05  2592.0      108.00     0.29569    
1
1
                            STRESS PERIOD NO.  109, LENGTH =   1.000000    
                            -----------------------------------------------

                              NUMBER OF TIME STEPS =     1

                               MULTIPLIER FOR DELT =     1.000

                            INITIAL TIME STEP SIZE =   1.000000    

 REUSING NON-PARAMETER RIVER REACHES FROM LAST STRESS PERIOD

      2 RIVER REACHES

                 RECHARGE = -1.081897E-04
 
 SOLVING FOR HEAD 

 OUTPUT CONTROL FOR STRESS PERIOD  109   TIME STEP    1
    SAVE HEAD FOR ALL LAYERS

 HEAD WILL BE SAVED ON UNIT   51 AT END OF TIME STEP    1, STRESS PERIOD  109
1
  VOLUMETRIC BUDGET FOR ENTIRE MODEL AT END OF TIME STEP    1, STRESS PERIOD 109
  ------------------------------------------------------------------------------

     CUMULATIVE VOLUMES      L**3       RATES FOR THIS TIME STEP      L**3/T
     ------------------                 ------------------------

           IN:                                      IN:
           ---                                      ---
             STORAGE =         263.0357               STORAGE =           8.6507
       CONSTANT HEAD =           0.0000         CONSTANT HEAD =           0.0000
       RIVER LEAKAGE =           0.0000         RIVER LEAKAGE =           0.0000
            RECHARGE =        1321.3047              RECHARGE =           0.0000

            TOTAL IN =        1584.3405              TOTAL IN =           8.6507

          OUT:                                     OUT:
          ----                                     ----
             STORAGE =         501.0602               STORAGE =           0.0000
       CONSTANT HEAD =         365.2537         CONSTANT HEAD =           3.4131
       RIVER LEAKAGE =         690.5768         RIVER LEAKAGE =           4.1558
            RECHARGE =          27.4497              RECHARGE =           1.0819

           TOTAL OUT =        1584.3403             TOTAL OUT =           8.6507

            IN - OUT =       1.2207E-04              IN - OUT =      -1.2398E-05

 PERCENT DISCREPANCY =           0.00     PERCENT DISCREPANCY =          -0.00






         TIME SUMMARY AT END OF TIME STEP    1 IN STRESS PERIOD  109
                    SECONDS     MINUTES      HOURS       DAYS        YEARS
                    -----------------------------------------------------------
   TIME STEP LENGTH  86400.      1440.0      24.000      1.0000     2.73785E-03
 STRESS PERIOD TIME  86400.      1440.0      24.000      1.0000     2.73785E-03
         TOTAL TIME 9.41760E+06 1.56960E+05  2616.0      109.00     0.29843    
1
1
                            STRESS PERIOD NO.  110, LENGTH =   1.000000    
                            -----------------------------------------------

                              NUMBER OF TIME STEPS =     1

                               MULTIPLIER FOR DELT =     1.000

                            INITIAL TIME STEP SIZE =   1.000000    

 REUSING NON-PARAMETER RIVER REACHES FROM LAST STRESS PERIOD

      2 RIVER REACHES

                 RECHARGE = -1.418103E-04
 
 SOLVING FOR HEAD 

 OUTPUT CONTROL FOR STRESS PERIOD  110   TIME STEP    1
    SAVE HEAD FOR ALL LAYERS

 HEAD WILL BE SAVED ON UNIT   51 AT END OF TIME STEP    1, STRESS PERIOD  110
1
  VOLUMETRIC BUDGET FOR ENTIRE MODEL AT END OF TIME STEP    1, STRESS PERIOD 110
  ------------------------------------------------------------------------------

     CUMULATIVE VOLUMES      L**3       RATES FOR THIS TIME STEP      L**3/T
     ------------------                 ------------------------

           IN:                                      IN:
           ---                                      ---
             STORAGE =         271.9293               STORAGE =           8.8935
       CONSTANT HEAD =           0.0000         CONSTANT HEAD =           0.0000
       RIVER LEAKAGE =           0.0000         RIVER LEAKAGE =           0.0000
            RECHARGE =        1321.3047              RECHARGE =           0.0000

            TOTAL IN =        1593.2339              TOTAL IN =           8.8935

          OUT:                                     OUT:
          ----                                     ----
             STORAGE =         501.0602               STORAGE =           0.0000
       CONSTANT HEAD =         368.6660         CONSTANT HEAD =           3.4124
       RIVER LEAKAGE =         694.6398         RIVER LEAKAGE =           4.0631
            RECHARGE =          28.8678              RECHARGE =           1.4181

           TOTAL OUT =        1593.2340             TOTAL OUT =           8.8935

            IN - OUT =      -1.2207E-04              IN - OUT =      -8.5831E-06

 PERCENT DISCREPANCY =          -0.00     PERCENT DISCREPANCY =          -0.00






         TIME SUMMARY AT END OF TIME STEP    1 IN STRESS PERIOD  110
                    SECONDS     MINUTES      HOURS       DAYS        YEARS
                    -----------------------------------------------------------
   TIME STEP LENGTH  86400.      1440.0      24.000      1.0000     2.73785E-03
 STRESS PERIOD TIME  86400.      1440.0      24.000      1.0000     2.73785E-03
         TOTAL TIME 9.50400E+06 1.58400E+05  2640.0      110.00     0.30116    
1
1
                            STRESS PERIOD NO.  111, LENGTH =   1.000000    
                            -----------------------------------------------

                              NUMBER OF TIME STEPS =     1

                               MULTIPLIER FOR DELT =     1.000

                            INITIAL TIME STEP SIZE =   1.000000    

 REUSING NON-PARAMETER RIVER REACHES FROM LAST STRESS PERIOD

      2 RIVER REACHES

                 RECHARGE = -7.564655E-04
 
 SOLVING FOR HEAD 

 OUTPUT CONTROL FOR STRESS PERIOD  111   TIME STEP    1
    SAVE HEAD FOR ALL LAYERS

 HEAD WILL BE SAVED ON UNIT   51 AT END OF TIME STEP    1, STRESS PERIOD  111
1
  VOLUMETRIC BUDGET FOR ENTIRE MODEL AT END OF TIME STEP    1, STRESS PERIOD 111
  ------------------------------------------------------------------------------

     CUMULATIVE VOLUMES      L**3       RATES FOR THIS TIME STEP      L**3/T
     ------------------                 ------------------------

           IN:                                      IN:
           ---                                      ---
             STORAGE =         286.6719               STORAGE =          14.7427
       CONSTANT HEAD =           0.0000         CONSTANT HEAD =           0.0000
       RIVER LEAKAGE =           0.0000         RIVER LEAKAGE =           0.0000
            RECHARGE =        1321.3047              RECHARGE =           0.0000

            TOTAL IN =        1607.9766              TOTAL IN =          14.7427

          OUT:                                     OUT:
          ----                                     ----
             STORAGE =         501.0602               STORAGE =           0.0000
       CONSTANT HEAD =         372.0775         CONSTANT HEAD =           3.4114
       RIVER LEAKAGE =         698.4066         RIVER LEAKAGE =           3.7667
            RECHARGE =          36.4325              RECHARGE =           7.5647

           TOTAL OUT =        1607.9767             TOTAL OUT =          14.7428

            IN - OUT =      -1.2207E-04              IN - OUT =      -1.3161E-04

 PERCENT DISCREPANCY =          -0.00     PERCENT DISCREPANCY =          -0.00






         TIME SUMMARY AT END OF TIME STEP    1 IN STRESS PERIOD  111
                    SECONDS     MINUTES      HOURS       DAYS        YEARS
                    -----------------------------------------------------------
   TIME STEP LENGTH  86400.      1440.0      24.000      1.0000     2.73785E-03
 STRESS PERIOD TIME  86400.      1440.0      24.000      1.0000     2.73785E-03
         TOTAL TIME 9.59040E+06 1.59840E+05  2664.0      111.00     0.30390    
1
1
                            STRESS PERIOD NO.  112, LENGTH =   1.000000    
                            -----------------------------------------------

                              NUMBER OF TIME STEPS =     1

                               MULTIPLIER FOR DELT =     1.000

                            INITIAL TIME STEP SIZE =   1.000000    

 REUSING NON-PARAMETER RIVER REACHES FROM LAST STRESS PERIOD

      2 RIVER REACHES

                 RECHARGE = -1.027155E-03
 
 SOLVING FOR HEAD 

 OUTPUT CONTROL FOR STRESS PERIOD  112   TIME STEP    1
    SAVE HEAD FOR ALL LAYERS

 HEAD WILL BE SAVED ON UNIT   51 AT END OF TIME STEP    1, STRESS PERIOD  112
1
  VOLUMETRIC BUDGET FOR ENTIRE MODEL AT END OF TIME STEP    1, STRESS PERIOD 112
  ------------------------------------------------------------------------------

     CUMULATIVE VOLUMES      L**3       RATES FOR THIS TIME STEP      L**3/T
     ------------------                 ------------------------

           IN:                                      IN:
           ---                                      ---
             STORAGE =         303.8155               STORAGE =          17.1436
       CONSTANT HEAD =           0.0000         CONSTANT HEAD =           0.0000
       RIVER LEAKAGE =           0.0000         RIVER LEAKAGE =           0.0000
            RECHARGE =        1321.3047              RECHARGE =           0.0000

            TOTAL IN =        1625.1202              TOTAL IN =          17.1436

          OUT:                                     OUT:
          ----                                     ----
             STORAGE =         501.0602               STORAGE =           0.0000
       CONSTANT HEAD =         375.4876         CONSTANT HEAD =           3.4102
       RIVER LEAKAGE =         701.8683         RIVER LEAKAGE =           3.4618
            RECHARGE =          46.7040              RECHARGE =          10.2715

           TOTAL OUT =        1625.1202             TOTAL OUT =          17.1436

            IN - OUT =           0.0000              IN - OUT =       7.6294E-06

 PERCENT DISCREPANCY =           0.00     PERCENT DISCREPANCY =           0.00






         TIME SUMMARY AT END OF TIME STEP    1 IN STRESS PERIOD  112
                    SECONDS     MINUTES      HOURS       DAYS        YEARS
                    -----------------------------------------------------------
   TIME STEP LENGTH  86400.      1440.0      24.000      1.0000     2.73785E-03
 STRESS PERIOD TIME  86400.      1440.0      24.000      1.0000     2.73785E-03
         TOTAL TIME 9.67680E+06 1.61280E+05  2688.0      112.00     0.30664    
1
1
                            STRESS PERIOD NO.  113, LENGTH =   1.000000    
                            -----------------------------------------------

                              NUMBER OF TIME STEPS =     1

                               MULTIPLIER FOR DELT =     1.000

                            INITIAL TIME STEP SIZE =   1.000000    

 REUSING NON-PARAMETER RIVER REACHES FROM LAST STRESS PERIOD

      2 RIVER REACHES

                 RECHARGE = -1.215948E-03
 
 SOLVING FOR HEAD 

 OUTPUT CONTROL FOR STRESS PERIOD  113   TIME STEP    1
    SAVE HEAD FOR ALL LAYERS

 HEAD WILL BE SAVED ON UNIT   51 AT END OF TIME STEP    1, STRESS PERIOD  113
1
  VOLUMETRIC BUDGET FOR ENTIRE MODEL AT END OF TIME STEP    1, STRESS PERIOD 113
  ------------------------------------------------------------------------------

     CUMULATIVE VOLUMES      L**3       RATES FOR THIS TIME STEP      L**3/T
     ------------------                 ------------------------

           IN:                                      IN:
           ---                                      ---
             STORAGE =         322.5438               STORAGE =          18.7282
       CONSTANT HEAD =           0.0000         CONSTANT HEAD =           0.0000
       RIVER LEAKAGE =           0.0000         RIVER LEAKAGE =           0.0000
            RECHARGE =        1321.3047              RECHARGE =           0.0000

            TOTAL IN =        1643.8484              TOTAL IN =          18.7282

          OUT:                                     OUT:
          ----                                     ----
             STORAGE =         501.0602               STORAGE =           0.0000
       CONSTANT HEAD =         378.8964         CONSTANT HEAD =           3.4088
       RIVER LEAKAGE =         705.0285         RIVER LEAKAGE =           3.1602
            RECHARGE =          58.8635              RECHARGE =          12.1595

           TOTAL OUT =        1643.8486             TOTAL OUT =          18.7284

            IN - OUT =      -2.4414E-04              IN - OUT =      -1.8501E-04

 PERCENT DISCREPANCY =          -0.00     PERCENT DISCREPANCY =          -0.00






         TIME SUMMARY AT END OF TIME STEP    1 IN STRESS PERIOD  113
                    SECONDS     MINUTES      HOURS       DAYS        YEARS
                    -----------------------------------------------------------
   TIME STEP LENGTH  86400.      1440.0      24.000      1.0000     2.73785E-03
 STRESS PERIOD TIME  86400.      1440.0      24.000      1.0000     2.73785E-03
         TOTAL TIME 9.76320E+06 1.62720E+05  2712.0      113.00     0.30938    
1
1
                            STRESS PERIOD NO.  114, LENGTH =   1.000000    
                            -----------------------------------------------

                              NUMBER OF TIME STEPS =     1

                               MULTIPLIER FOR DELT =     1.000

                            INITIAL TIME STEP SIZE =   1.000000    

 REUSING NON-PARAMETER RIVER REACHES FROM LAST STRESS PERIOD

      2 RIVER REACHES

                 RECHARGE = -1.035345E-03
 
 SOLVING FOR HEAD 

 OUTPUT CONTROL FOR STRESS PERIOD  114   TIME STEP    1
    SAVE HEAD FOR ALL LAYERS

 HEAD WILL BE SAVED ON UNIT   51 AT END OF TIME STEP    1, STRESS PERIOD  114
1
  VOLUMETRIC BUDGET FOR ENTIRE MODEL AT END OF TIME STEP    1, STRESS PERIOD 114
  ------------------------------------------------------------------------------

     CUMULATIVE VOLUMES      L**3       RATES FOR THIS TIME STEP      L**3/T
     ------------------                 ------------------------

           IN:                                      IN:
           ---                                      ---
             STORAGE =         339.2835               STORAGE =          16.7397
       CONSTANT HEAD =           0.0000         CONSTANT HEAD =           0.0000
       RIVER LEAKAGE =           0.0000         RIVER LEAKAGE =           0.0000
            RECHARGE =        1321.3047              RECHARGE =           0.0000

            TOTAL IN =        1660.5881              TOTAL IN =          16.7397

          OUT:                                     OUT:
          ----                                     ----
             STORAGE =         501.0602               STORAGE =           0.0000
       CONSTANT HEAD =         382.3036         CONSTANT HEAD =           3.4072
       RIVER LEAKAGE =         708.0075         RIVER LEAKAGE =           2.9790
            RECHARGE =          69.2169              RECHARGE =          10.3534

           TOTAL OUT =        1660.5883             TOTAL OUT =          16.7396

            IN - OUT =      -1.2207E-04              IN - OUT =       1.0490E-04

 PERCENT DISCREPANCY =          -0.00     PERCENT DISCREPANCY =           0.00






         TIME SUMMARY AT END OF TIME STEP    1 IN STRESS PERIOD  114
                    SECONDS     MINUTES      HOURS       DAYS        YEARS
                    -----------------------------------------------------------
   TIME STEP LENGTH  86400.      1440.0      24.000      1.0000     2.73785E-03
 STRESS PERIOD TIME  86400.      1440.0      24.000      1.0000     2.73785E-03
         TOTAL TIME 9.84960E+06 1.64160E+05  2736.0      114.00     0.31211    
1
1
                            STRESS PERIOD NO.  115, LENGTH =   1.000000    
                            -----------------------------------------------

                              NUMBER OF TIME STEPS =     1

                               MULTIPLIER FOR DELT =     1.000

                            INITIAL TIME STEP SIZE =   1.000000    

 REUSING NON-PARAMETER RIVER REACHES FROM LAST STRESS PERIOD

      2 RIVER REACHES

                 RECHARGE = -1.586638E-03
 
 SOLVING FOR HEAD 

 OUTPUT CONTROL FOR STRESS PERIOD  115   TIME STEP    1
    SAVE HEAD FOR ALL LAYERS

 HEAD WILL BE SAVED ON UNIT   51 AT END OF TIME STEP    1, STRESS PERIOD  115
1
  VOLUMETRIC BUDGET FOR ENTIRE MODEL AT END OF TIME STEP    1, STRESS PERIOD 115
  ------------------------------------------------------------------------------

     CUMULATIVE VOLUMES      L**3       RATES FOR THIS TIME STEP      L**3/T
     ------------------                 ------------------------

           IN:                                      IN:
           ---                                      ---
             STORAGE =         361.1653               STORAGE =          21.8818
       CONSTANT HEAD =           0.0000         CONSTANT HEAD =           0.0000
       RIVER LEAKAGE =           0.0000         RIVER LEAKAGE =           0.0000
            RECHARGE =        1321.3047              RECHARGE =           0.0000

            TOTAL IN =        1682.4700              TOTAL IN =          21.8818

          OUT:                                     OUT:
          ----                                     ----
             STORAGE =         501.0602               STORAGE =           0.0000
       CONSTANT HEAD =         385.7089         CONSTANT HEAD =           3.4053
       RIVER LEAKAGE =         710.6177         RIVER LEAKAGE =           2.6102
            RECHARGE =          85.0833              RECHARGE =          15.8664

           TOTAL OUT =        1682.4702             TOTAL OUT =          21.8819

            IN - OUT =      -2.4414E-04              IN - OUT =      -9.7275E-05

 PERCENT DISCREPANCY =          -0.00     PERCENT DISCREPANCY =          -0.00






         TIME SUMMARY AT END OF TIME STEP    1 IN STRESS PERIOD  115
                    SECONDS     MINUTES      HOURS       DAYS        YEARS
                    -----------------------------------------------------------
   TIME STEP LENGTH  86400.      1440.0      24.000      1.0000     2.73785E-03
 STRESS PERIOD TIME  86400.      1440.0      24.000      1.0000     2.73785E-03
         TOTAL TIME 9.93600E+06 1.65600E+05  2760.0      115.00     0.31485    
1
1
                            STRESS PERIOD NO.  116, LENGTH =   1.000000    
                            -----------------------------------------------

                              NUMBER OF TIME STEPS =     1

                               MULTIPLIER FOR DELT =     1.000

                            INITIAL TIME STEP SIZE =   1.000000    

 REUSING NON-PARAMETER RIVER REACHES FROM LAST STRESS PERIOD

      2 RIVER REACHES

                 RECHARGE = -4.362069E-04
 
 SOLVING FOR HEAD 

 OUTPUT CONTROL FOR STRESS PERIOD  116   TIME STEP    1
    SAVE HEAD FOR ALL LAYERS

 HEAD WILL BE SAVED ON UNIT   51 AT END OF TIME STEP    1, STRESS PERIOD  116
1
  VOLUMETRIC BUDGET FOR ENTIRE MODEL AT END OF TIME STEP    1, STRESS PERIOD 116
  ------------------------------------------------------------------------------

     CUMULATIVE VOLUMES      L**3       RATES FOR THIS TIME STEP      L**3/T
     ------------------                 ------------------------

           IN:                                      IN:
           ---                                      ---
             STORAGE =         371.7130               STORAGE =          10.5477
       CONSTANT HEAD =           0.0000         CONSTANT HEAD =           0.0000
       RIVER LEAKAGE =           0.0000         RIVER LEAKAGE =           0.0000
            RECHARGE =        1321.3047              RECHARGE =           0.0000

            TOTAL IN =        1693.0177              TOTAL IN =          10.5477

          OUT:                                     OUT:
          ----                                     ----
             STORAGE =         501.1151               STORAGE =       5.4879E-02
       CONSTANT HEAD =         389.1126         CONSTANT HEAD =           3.4037
       RIVER LEAKAGE =         713.3447         RIVER LEAKAGE =           2.7270
            RECHARGE =          89.4454              RECHARGE =           4.3621

           TOTAL OUT =        1693.0178             TOTAL OUT =          10.5476

            IN - OUT =      -1.2207E-04              IN - OUT =       6.9618E-05

 PERCENT DISCREPANCY =          -0.00     PERCENT DISCREPANCY =           0.00






         TIME SUMMARY AT END OF TIME STEP    1 IN STRESS PERIOD  116
                    SECONDS     MINUTES      HOURS       DAYS        YEARS
                    -----------------------------------------------------------
   TIME STEP LENGTH  86400.      1440.0      24.000      1.0000     2.73785E-03
 STRESS PERIOD TIME  86400.      1440.0      24.000      1.0000     2.73785E-03
         TOTAL TIME 1.00224E+07 1.67040E+05  2784.0      116.00     0.31759    
1
1
                            STRESS PERIOD NO.  117, LENGTH =   1.000000    
                            -----------------------------------------------

                              NUMBER OF TIME STEPS =     1

                               MULTIPLIER FOR DELT =     1.000

                            INITIAL TIME STEP SIZE =   1.000000    

 REUSING NON-PARAMETER RIVER REACHES FROM LAST STRESS PERIOD

      2 RIVER REACHES

                 RECHARGE = -1.022845E-03
 
 SOLVING FOR HEAD 

 OUTPUT CONTROL FOR STRESS PERIOD  117   TIME STEP    1
    SAVE HEAD FOR ALL LAYERS

 HEAD WILL BE SAVED ON UNIT   51 AT END OF TIME STEP    1, STRESS PERIOD  117
1
  VOLUMETRIC BUDGET FOR ENTIRE MODEL AT END OF TIME STEP    1, STRESS PERIOD 117
  ------------------------------------------------------------------------------

     CUMULATIVE VOLUMES      L**3       RATES FOR THIS TIME STEP      L**3/T
     ------------------                 ------------------------

           IN:                                      IN:
           ---                                      ---
             STORAGE =         387.8668               STORAGE =          16.1538
       CONSTANT HEAD =           0.0000         CONSTANT HEAD =           0.0000
       RIVER LEAKAGE =           0.0000         RIVER LEAKAGE =           0.0000
            RECHARGE =        1321.3047              RECHARGE =           0.0000

            TOTAL IN =        1709.1715              TOTAL IN =          16.1538

          OUT:                                     OUT:
          ----                                     ----
             STORAGE =         501.1151               STORAGE =           0.0000
       CONSTANT HEAD =         392.5144         CONSTANT HEAD =           3.4018
       RIVER LEAKAGE =         715.8680         RIVER LEAKAGE =           2.5233
            RECHARGE =          99.6738              RECHARGE =          10.2285

           TOTAL OUT =        1709.1714             TOTAL OUT =          16.1536

            IN - OUT =       1.2207E-04              IN - OUT =       1.9264E-04

 PERCENT DISCREPANCY =           0.00     PERCENT DISCREPANCY =           0.00






         TIME SUMMARY AT END OF TIME STEP    1 IN STRESS PERIOD  117
                    SECONDS     MINUTES      HOURS       DAYS        YEARS
                    -----------------------------------------------------------
   TIME STEP LENGTH  86400.      1440.0      24.000      1.0000     2.73785E-03
 STRESS PERIOD TIME  86400.      1440.0      24.000      1.0000     2.73785E-03
         TOTAL TIME 1.01088E+07 1.68480E+05  2808.0      117.00     0.32033    
1
1
                            STRESS PERIOD NO.  118, LENGTH =   1.000000    
                            -----------------------------------------------

                              NUMBER OF TIME STEPS =     1

                               MULTIPLIER FOR DELT =     1.000

                            INITIAL TIME STEP SIZE =   1.000000    

 REUSING NON-PARAMETER RIVER REACHES FROM LAST STRESS PERIOD

      2 RIVER REACHES

                 RECHARGE = -1.137069E-03
 
 SOLVING FOR HEAD 

 OUTPUT CONTROL FOR STRESS PERIOD  118   TIME STEP    1
    SAVE HEAD FOR ALL LAYERS

 HEAD WILL BE SAVED ON UNIT   51 AT END OF TIME STEP    1, STRESS PERIOD  118
1
  VOLUMETRIC BUDGET FOR ENTIRE MODEL AT END OF TIME STEP    1, STRESS PERIOD 118
  ------------------------------------------------------------------------------

     CUMULATIVE VOLUMES      L**3       RATES FOR THIS TIME STEP      L**3/T
     ------------------                 ------------------------

           IN:                                      IN:
           ---                                      ---
             STORAGE =         404.9601               STORAGE =          17.0933
       CONSTANT HEAD =           0.0000         CONSTANT HEAD =           0.0000
       RIVER LEAKAGE =           0.0000         RIVER LEAKAGE =           0.0000
            RECHARGE =        1321.3047              RECHARGE =           0.0000

            TOTAL IN =        1726.2648              TOTAL IN =          17.0933

          OUT:                                     OUT:
          ----                                     ----
             STORAGE =         501.1151               STORAGE =           0.0000
       CONSTANT HEAD =         395.9142         CONSTANT HEAD =           3.3998
       RIVER LEAKAGE =         718.1907         RIVER LEAKAGE =           2.3228
            RECHARGE =         111.0445              RECHARGE =          11.3707

           TOTAL OUT =        1726.2646             TOTAL OUT =          17.0933

            IN - OUT =       1.2207E-04              IN - OUT =       1.5259E-05

 PERCENT DISCREPANCY =           0.00     PERCENT DISCREPANCY =           0.00






         TIME SUMMARY AT END OF TIME STEP    1 IN STRESS PERIOD  118
                    SECONDS     MINUTES      HOURS       DAYS        YEARS
                    -----------------------------------------------------------
   TIME STEP LENGTH  86400.      1440.0      24.000      1.0000     2.73785E-03
 STRESS PERIOD TIME  86400.      1440.0      24.000      1.0000     2.73785E-03
         TOTAL TIME 1.01952E+07 1.69920E+05  2832.0      118.00     0.32307    
1
1
                            STRESS PERIOD NO.  119, LENGTH =   1.000000    
                            -----------------------------------------------

                              NUMBER OF TIME STEPS =     1

                               MULTIPLIER FOR DELT =     1.000

                            INITIAL TIME STEP SIZE =   1.000000    

 REUSING NON-PARAMETER RIVER REACHES FROM LAST STRESS PERIOD

      2 RIVER REACHES

                 RECHARGE = -3.392241E-04
 
 SOLVING FOR HEAD 

 OUTPUT CONTROL FOR STRESS PERIOD  119   TIME STEP    1
    SAVE HEAD FOR ALL LAYERS

 HEAD WILL BE SAVED ON UNIT   51 AT END OF TIME STEP    1, STRESS PERIOD  119
1
  VOLUMETRIC BUDGET FOR ENTIRE MODEL AT END OF TIME STEP    1, STRESS PERIOD 119
  ------------------------------------------------------------------------------

     CUMULATIVE VOLUMES      L**3       RATES FOR THIS TIME STEP      L**3/T
     ------------------                 ------------------------

           IN:                                      IN:
           ---                                      ---
             STORAGE =         414.2545               STORAGE =           9.2944
       CONSTANT HEAD =           0.0000         CONSTANT HEAD =           0.0000
       RIVER LEAKAGE =           0.0000         RIVER LEAKAGE =           0.0000
            RECHARGE =        1321.3047              RECHARGE =           0.0000

            TOTAL IN =        1735.5591              TOTAL IN =           9.2944

          OUT:                                     OUT:
          ----                                     ----
             STORAGE =         501.1885               STORAGE =       7.3416E-02
       CONSTANT HEAD =         399.3122         CONSTANT HEAD =           3.3979
       RIVER LEAKAGE =         720.6216         RIVER LEAKAGE =           2.4309
            RECHARGE =         114.4368              RECHARGE =           3.3922

           TOTAL OUT =        1735.5591             TOTAL OUT =           9.2945

            IN - OUT =           0.0000              IN - OUT =      -7.5340E-05

 PERCENT DISCREPANCY =           0.00     PERCENT DISCREPANCY =          -0.00






         TIME SUMMARY AT END OF TIME STEP    1 IN STRESS PERIOD  119
                    SECONDS     MINUTES      HOURS       DAYS        YEARS
                    -----------------------------------------------------------
   TIME STEP LENGTH  86400.      1440.0      24.000      1.0000     2.73785E-03
 STRESS PERIOD TIME  86400.      1440.0      24.000      1.0000     2.73785E-03
         TOTAL TIME 1.02816E+07 1.71360E+05  2856.0      119.00     0.32580    
1
1
                            STRESS PERIOD NO.  120, LENGTH =   1.000000    
                            -----------------------------------------------

                              NUMBER OF TIME STEPS =     1

                               MULTIPLIER FOR DELT =     1.000

                            INITIAL TIME STEP SIZE =   1.000000    

 REUSING NON-PARAMETER RIVER REACHES FROM LAST STRESS PERIOD

      2 RIVER REACHES

                 RECHARGE = -8.456897E-04
 
 SOLVING FOR HEAD 

 OUTPUT CONTROL FOR STRESS PERIOD  120   TIME STEP    1
    SAVE HEAD FOR ALL LAYERS

 HEAD WILL BE SAVED ON UNIT   51 AT END OF TIME STEP    1, STRESS PERIOD  120
1
  VOLUMETRIC BUDGET FOR ENTIRE MODEL AT END OF TIME STEP    1, STRESS PERIOD 120
  ------------------------------------------------------------------------------

     CUMULATIVE VOLUMES      L**3       RATES FOR THIS TIME STEP      L**3/T
     ------------------                 ------------------------

           IN:                                      IN:
           ---                                      ---
             STORAGE =         428.3778               STORAGE =          14.1233
       CONSTANT HEAD =           0.0000         CONSTANT HEAD =           0.0000
       RIVER LEAKAGE =           0.0000         RIVER LEAKAGE =           0.0000
            RECHARGE =        1321.3047              RECHARGE =           0.0000

            TOTAL IN =        1749.6825              TOTAL IN =          14.1233

          OUT:                                     OUT:
          ----                                     ----
             STORAGE =         501.1885               STORAGE =           0.0000
       CONSTANT HEAD =         402.7081         CONSTANT HEAD =           3.3959
       RIVER LEAKAGE =         722.8923         RIVER LEAKAGE =           2.2707
            RECHARGE =         122.8937              RECHARGE =           8.4569

           TOTAL OUT =        1749.6826             TOTAL OUT =          14.1235

            IN - OUT =      -1.2207E-04              IN - OUT =      -1.8787E-04

 PERCENT DISCREPANCY =          -0.00     PERCENT DISCREPANCY =          -0.00






         TIME SUMMARY AT END OF TIME STEP    1 IN STRESS PERIOD  120
                    SECONDS     MINUTES      HOURS       DAYS        YEARS
                    -----------------------------------------------------------
   TIME STEP LENGTH  86400.      1440.0      24.000      1.0000     2.73785E-03
 STRESS PERIOD TIME  86400.      1440.0      24.000      1.0000     2.73785E-03
         TOTAL TIME 1.03680E+07 1.72800E+05  2880.0      120.00     0.32854    
1
1
                            STRESS PERIOD NO.  121, LENGTH =   1.000000    
                            -----------------------------------------------

                              NUMBER OF TIME STEPS =     1

                               MULTIPLIER FOR DELT =     1.000

                            INITIAL TIME STEP SIZE =   1.000000    

 REUSING NON-PARAMETER RIVER REACHES FROM LAST STRESS PERIOD

      2 RIVER REACHES

                 RECHARGE =  8.232758E-05
 
 SOLVING FOR HEAD 

 OUTPUT CONTROL FOR STRESS PERIOD  121   TIME STEP    1
    SAVE HEAD FOR ALL LAYERS

 HEAD WILL BE SAVED ON UNIT   51 AT END OF TIME STEP    1, STRESS PERIOD  121
1
  VOLUMETRIC BUDGET FOR ENTIRE MODEL AT END OF TIME STEP    1, STRESS PERIOD 121
  ------------------------------------------------------------------------------

     CUMULATIVE VOLUMES      L**3       RATES FOR THIS TIME STEP      L**3/T
     ------------------                 ------------------------

           IN:                                      IN:
           ---                                      ---
             STORAGE =         433.8269               STORAGE =           5.4492
       CONSTANT HEAD =           0.0000         CONSTANT HEAD =           0.0000
       RIVER LEAKAGE =           0.0000         RIVER LEAKAGE =           0.0000
            RECHARGE =        1322.1279              RECHARGE =           0.8233

            TOTAL IN =        1755.9548              TOTAL IN =           6.2724

          OUT:                                     OUT:
          ----                                     ----
             STORAGE =         501.5952               STORAGE =           0.4066
       CONSTANT HEAD =         406.1023         CONSTANT HEAD =           3.3942
       RIVER LEAKAGE =         725.3641         RIVER LEAKAGE =           2.4719
            RECHARGE =         122.8937              RECHARGE =           0.0000

           TOTAL OUT =        1755.9553             TOTAL OUT =           6.2727

            IN - OUT =      -4.8828E-04              IN - OUT =      -2.3127E-04

 PERCENT DISCREPANCY =          -0.00     PERCENT DISCREPANCY =          -0.00






         TIME SUMMARY AT END OF TIME STEP    1 IN STRESS PERIOD  121
                    SECONDS     MINUTES      HOURS       DAYS        YEARS
                    -----------------------------------------------------------
   TIME STEP LENGTH  86400.      1440.0      24.000      1.0000     2.73785E-03
 STRESS PERIOD TIME  86400.      1440.0      24.000      1.0000     2.73785E-03
         TOTAL TIME 1.04544E+07 1.74240E+05  2904.0      121.00     0.33128    
1
1
                            STRESS PERIOD NO.  122, LENGTH =   1.000000    
                            -----------------------------------------------

                              NUMBER OF TIME STEPS =     1

                               MULTIPLIER FOR DELT =     1.000

                            INITIAL TIME STEP SIZE =   1.000000    

 REUSING NON-PARAMETER RIVER REACHES FROM LAST STRESS PERIOD

      2 RIVER REACHES

                 RECHARGE = -2.241379E-04
 
 SOLVING FOR HEAD 

 OUTPUT CONTROL FOR STRESS PERIOD  122   TIME STEP    1
    SAVE HEAD FOR ALL LAYERS

 HEAD WILL BE SAVED ON UNIT   51 AT END OF TIME STEP    1, STRESS PERIOD  122
1
  VOLUMETRIC BUDGET FOR ENTIRE MODEL AT END OF TIME STEP    1, STRESS PERIOD 122
  ------------------------------------------------------------------------------

     CUMULATIVE VOLUMES      L**3       RATES FOR THIS TIME STEP      L**3/T
     ------------------                 ------------------------

           IN:                                      IN:
           ---                                      ---
             STORAGE =         441.9153               STORAGE =           8.0884
       CONSTANT HEAD =           0.0000         CONSTANT HEAD =           0.0000
       RIVER LEAKAGE =           0.0000         RIVER LEAKAGE =           0.0000
            RECHARGE =        1322.1279              RECHARGE =           0.0000

            TOTAL IN =        1764.0432              TOTAL IN =           8.0884

          OUT:                                     OUT:
          ----                                     ----
             STORAGE =         501.5952               STORAGE =           0.0000
       CONSTANT HEAD =         409.4946         CONSTANT HEAD =           3.3923
       RIVER LEAKAGE =         727.8186         RIVER LEAKAGE =           2.4544
            RECHARGE =         125.1350              RECHARGE =           2.2414

           TOTAL OUT =        1764.0435             TOTAL OUT =           8.0881

            IN - OUT =      -2.4414E-04              IN - OUT =       2.3937E-04

 PERCENT DISCREPANCY =          -0.00     PERCENT DISCREPANCY =           0.00






         TIME SUMMARY AT END OF TIME STEP    1 IN STRESS PERIOD  122
                    SECONDS     MINUTES      HOURS       DAYS        YEARS
                    -----------------------------------------------------------
   TIME STEP LENGTH  86400.      1440.0      24.000      1.0000     2.73785E-03
 STRESS PERIOD TIME  86400.      1440.0      24.000      1.0000     2.73785E-03
         TOTAL TIME 1.05408E+07 1.75680E+05  2928.0      122.00     0.33402    
1
1
                            STRESS PERIOD NO.  123, LENGTH =   1.000000    
                            -----------------------------------------------

                              NUMBER OF TIME STEPS =     1

                               MULTIPLIER FOR DELT =     1.000

                            INITIAL TIME STEP SIZE =   1.000000    

 REUSING NON-PARAMETER RIVER REACHES FROM LAST STRESS PERIOD

      2 RIVER REACHES

                 RECHARGE = -1.065086E-03
 
 SOLVING FOR HEAD 

 OUTPUT CONTROL FOR STRESS PERIOD  123   TIME STEP    1
    SAVE HEAD FOR ALL LAYERS

 HEAD WILL BE SAVED ON UNIT   51 AT END OF TIME STEP    1, STRESS PERIOD  123
1
  VOLUMETRIC BUDGET FOR ENTIRE MODEL AT END OF TIME STEP    1, STRESS PERIOD 123
  ------------------------------------------------------------------------------

     CUMULATIVE VOLUMES      L**3       RATES FOR THIS TIME STEP      L**3/T
     ------------------                 ------------------------

           IN:                                      IN:
           ---                                      ---
             STORAGE =         458.0991               STORAGE =          16.1838
       CONSTANT HEAD =           0.0000         CONSTANT HEAD =           0.0000
       RIVER LEAKAGE =           0.0000         RIVER LEAKAGE =           0.0000
            RECHARGE =        1322.1279              RECHARGE =           0.0000

            TOTAL IN =        1780.2271              TOTAL IN =          16.1838

          OUT:                                     OUT:
          ----                                     ----
             STORAGE =         501.5952               STORAGE =           0.0000
       CONSTANT HEAD =         412.8848         CONSTANT HEAD =           3.3902
       RIVER LEAKAGE =         729.9615         RIVER LEAKAGE =           2.1430
            RECHARGE =         135.7859              RECHARGE =          10.6509

           TOTAL OUT =        1780.2274             TOTAL OUT =          16.1840

            IN - OUT =      -3.6621E-04              IN - OUT =      -2.2507E-04

 PERCENT DISCREPANCY =          -0.00     PERCENT DISCREPANCY =          -0.00






         TIME SUMMARY AT END OF TIME STEP    1 IN STRESS PERIOD  123
                    SECONDS     MINUTES      HOURS       DAYS        YEARS
                    -----------------------------------------------------------
   TIME STEP LENGTH  86400.      1440.0      24.000      1.0000     2.73785E-03
 STRESS PERIOD TIME  86400.      1440.0      24.000      1.0000     2.73785E-03
         TOTAL TIME 1.06272E+07 1.77120E+05  2952.0      123.00     0.33676    
1
1
                            STRESS PERIOD NO.  124, LENGTH =   1.000000    
                            -----------------------------------------------

                              NUMBER OF TIME STEPS =     1

                               MULTIPLIER FOR DELT =     1.000

                            INITIAL TIME STEP SIZE =   1.000000    

 REUSING NON-PARAMETER RIVER REACHES FROM LAST STRESS PERIOD

      2 RIVER REACHES

                 RECHARGE = -4.793103E-04
 
 SOLVING FOR HEAD 

 OUTPUT CONTROL FOR STRESS PERIOD  124   TIME STEP    1
    SAVE HEAD FOR ALL LAYERS

 HEAD WILL BE SAVED ON UNIT   51 AT END OF TIME STEP    1, STRESS PERIOD  124
1
  VOLUMETRIC BUDGET FOR ENTIRE MODEL AT END OF TIME STEP    1, STRESS PERIOD 124
  ------------------------------------------------------------------------------

     CUMULATIVE VOLUMES      L**3       RATES FOR THIS TIME STEP      L**3/T
     ------------------                 ------------------------

           IN:                                      IN:
           ---                                      ---
             STORAGE =         468.4216               STORAGE =          10.3225
       CONSTANT HEAD =           0.0000         CONSTANT HEAD =           0.0000
       RIVER LEAKAGE =           0.0000         RIVER LEAKAGE =           0.0000
            RECHARGE =        1322.1279              RECHARGE =           0.0000

            TOTAL IN =        1790.5496              TOTAL IN =          10.3225

          OUT:                                     OUT:
          ----                                     ----
             STORAGE =         501.5952               STORAGE =           0.0000
       CONSTANT HEAD =         416.2729         CONSTANT HEAD =           3.3881
       RIVER LEAKAGE =         732.1028         RIVER LEAKAGE =           2.1412
            RECHARGE =         140.5790              RECHARGE =           4.7931

           TOTAL OUT =        1790.5499             TOTAL OUT =          10.3225

            IN - OUT =      -3.6621E-04              IN - OUT =       2.4796E-05

 PERCENT DISCREPANCY =          -0.00     PERCENT DISCREPANCY =           0.00






         TIME SUMMARY AT END OF TIME STEP    1 IN STRESS PERIOD  124
                    SECONDS     MINUTES      HOURS       DAYS        YEARS
                    -----------------------------------------------------------
   TIME STEP LENGTH  86400.      1440.0      24.000      1.0000     2.73785E-03
 STRESS PERIOD TIME  86400.      1440.0      24.000      1.0000     2.73785E-03
         TOTAL TIME 1.07136E+07 1.78560E+05  2976.0      124.00     0.33949    
1
1
                            STRESS PERIOD NO.  125, LENGTH =   1.000000    
                            -----------------------------------------------

                              NUMBER OF TIME STEPS =     1

                               MULTIPLIER FOR DELT =     1.000

                            INITIAL TIME STEP SIZE =   1.000000    

 REUSING NON-PARAMETER RIVER REACHES FROM LAST STRESS PERIOD

      2 RIVER REACHES

                 RECHARGE = -3.517241E-04
 
 SOLVING FOR HEAD 

 OUTPUT CONTROL FOR STRESS PERIOD  125   TIME STEP    1
    SAVE HEAD FOR ALL LAYERS

 HEAD WILL BE SAVED ON UNIT   51 AT END OF TIME STEP    1, STRESS PERIOD  125
1
  VOLUMETRIC BUDGET FOR ENTIRE MODEL AT END OF TIME STEP    1, STRESS PERIOD 125
  ------------------------------------------------------------------------------

     CUMULATIVE VOLUMES      L**3       RATES FOR THIS TIME STEP      L**3/T
     ------------------                 ------------------------

           IN:                                      IN:
           ---                                      ---
             STORAGE =         477.4685               STORAGE =           9.0469
       CONSTANT HEAD =           0.0000         CONSTANT HEAD =           0.0000
       RIVER LEAKAGE =           0.0000         RIVER LEAKAGE =           0.0000
            RECHARGE =        1322.1279              RECHARGE =           0.0000

            TOTAL IN =        1799.5964              TOTAL IN =           9.0469

          OUT:                                     OUT:
          ----                                     ----
             STORAGE =         501.5953               STORAGE =       1.3232E-04
       CONSTANT HEAD =         419.6590         CONSTANT HEAD =           3.3861
       RIVER LEAKAGE =         734.2464         RIVER LEAKAGE =           2.1436
            RECHARGE =         144.0963              RECHARGE =           3.5172

           TOTAL OUT =        1799.5969             TOTAL OUT =           9.0471

            IN - OUT =      -4.8828E-04              IN - OUT =      -1.1921E-04

 PERCENT DISCREPANCY =          -0.00     PERCENT DISCREPANCY =          -0.00






         TIME SUMMARY AT END OF TIME STEP    1 IN STRESS PERIOD  125
                    SECONDS     MINUTES      HOURS       DAYS        YEARS
                    -----------------------------------------------------------
   TIME STEP LENGTH  86400.      1440.0      24.000      1.0000     2.73785E-03
 STRESS PERIOD TIME  86400.      1440.0      24.000      1.0000     2.73785E-03
         TOTAL TIME 1.08000E+07 1.80000E+05  3000.0      125.00     0.34223    
1
1
                            STRESS PERIOD NO.  126, LENGTH =   1.000000    
                            -----------------------------------------------

                              NUMBER OF TIME STEPS =     1

                               MULTIPLIER FOR DELT =     1.000

                            INITIAL TIME STEP SIZE =   1.000000    

 REUSING NON-PARAMETER RIVER REACHES FROM LAST STRESS PERIOD

      2 RIVER REACHES

                 RECHARGE =  1.176724E-04
 
 SOLVING FOR HEAD 

 OUTPUT CONTROL FOR STRESS PERIOD  126   TIME STEP    1
    SAVE HEAD FOR ALL LAYERS

 HEAD WILL BE SAVED ON UNIT   51 AT END OF TIME STEP    1, STRESS PERIOD  126
1
  VOLUMETRIC BUDGET FOR ENTIRE MODEL AT END OF TIME STEP    1, STRESS PERIOD 126
  ------------------------------------------------------------------------------

     CUMULATIVE VOLUMES      L**3       RATES FOR THIS TIME STEP      L**3/T
     ------------------                 ------------------------

           IN:                                      IN:
           ---                                      ---
             STORAGE =         482.3018               STORAGE =           4.8332
       CONSTANT HEAD =           0.0000         CONSTANT HEAD =           0.0000
       RIVER LEAKAGE =           0.0000         RIVER LEAKAGE =           0.0000
            RECHARGE =        1323.3047              RECHARGE =           1.1767

            TOTAL IN =        1805.6064              TOTAL IN =           6.0100

          OUT:                                     OUT:
          ----                                     ----
             STORAGE =         501.9376               STORAGE =           0.3423
       CONSTANT HEAD =         423.0431         CONSTANT HEAD =           3.3841
       RIVER LEAKAGE =         736.5300         RIVER LEAKAGE =           2.2837
            RECHARGE =         144.0963              RECHARGE =           0.0000

           TOTAL OUT =        1805.6069             TOTAL OUT =           6.0101

            IN - OUT =      -4.8828E-04              IN - OUT =      -1.5020E-04

 PERCENT DISCREPANCY =          -0.00     PERCENT DISCREPANCY =          -0.00






         TIME SUMMARY AT END OF TIME STEP    1 IN STRESS PERIOD  126
                    SECONDS     MINUTES      HOURS       DAYS        YEARS
                    -----------------------------------------------------------
   TIME STEP LENGTH  86400.      1440.0      24.000      1.0000     2.73785E-03
 STRESS PERIOD TIME  86400.      1440.0      24.000      1.0000     2.73785E-03
         TOTAL TIME 1.08864E+07 1.81440E+05  3024.0      126.00     0.34497    
1
1
                            STRESS PERIOD NO.  127, LENGTH =   1.000000    
                            -----------------------------------------------

                              NUMBER OF TIME STEPS =     1

                               MULTIPLIER FOR DELT =     1.000

                            INITIAL TIME STEP SIZE =   1.000000    

 REUSING NON-PARAMETER RIVER REACHES FROM LAST STRESS PERIOD

      2 RIVER REACHES

                 RECHARGE = -5.051724E-04
 
 SOLVING FOR HEAD 

 OUTPUT CONTROL FOR STRESS PERIOD  127   TIME STEP    1
    SAVE HEAD FOR ALL LAYERS

 HEAD WILL BE SAVED ON UNIT   51 AT END OF TIME STEP    1, STRESS PERIOD  127
1
  VOLUMETRIC BUDGET FOR ENTIRE MODEL AT END OF TIME STEP    1, STRESS PERIOD 127
  ------------------------------------------------------------------------------

     CUMULATIVE VOLUMES      L**3       RATES FOR THIS TIME STEP      L**3/T
     ------------------                 ------------------------

           IN:                                      IN:
           ---                                      ---
             STORAGE =         492.8695               STORAGE =          10.5677
       CONSTANT HEAD =           0.0000         CONSTANT HEAD =           0.0000
       RIVER LEAKAGE =           0.0000         RIVER LEAKAGE =           0.0000
            RECHARGE =        1323.3047              RECHARGE =           0.0000

            TOTAL IN =        1816.1742              TOTAL IN =          10.5677

          OUT:                                     OUT:
          ----                                     ----
             STORAGE =         501.9376               STORAGE =           0.0000
       CONSTANT HEAD =         426.4252         CONSTANT HEAD =           3.3820
       RIVER LEAKAGE =         738.6641         RIVER LEAKAGE =           2.1340
            RECHARGE =         149.1480              RECHARGE =           5.0517

           TOTAL OUT =        1816.1748             TOTAL OUT =          10.5678

            IN - OUT =      -6.1035E-04              IN - OUT =      -9.4414E-05

 PERCENT DISCREPANCY =          -0.00     PERCENT DISCREPANCY =          -0.00






         TIME SUMMARY AT END OF TIME STEP    1 IN STRESS PERIOD  127
                    SECONDS     MINUTES      HOURS       DAYS        YEARS
                    -----------------------------------------------------------
   TIME STEP LENGTH  86400.      1440.0      24.000      1.0000     2.73785E-03
 STRESS PERIOD TIME  86400.      1440.0      24.000      1.0000     2.73785E-03
         TOTAL TIME 1.09728E+07 1.82880E+05  3048.0      127.00     0.34771    
1
1
                            STRESS PERIOD NO.  128, LENGTH =   1.000000    
                            -----------------------------------------------

                              NUMBER OF TIME STEPS =     1

                               MULTIPLIER FOR DELT =     1.000

                            INITIAL TIME STEP SIZE =   1.000000    

 REUSING NON-PARAMETER RIVER REACHES FROM LAST STRESS PERIOD

      2 RIVER REACHES

                 RECHARGE = -7.547414E-04
 
 SOLVING FOR HEAD 

 OUTPUT CONTROL FOR STRESS PERIOD  128   TIME STEP    1
    SAVE HEAD FOR ALL LAYERS

 HEAD WILL BE SAVED ON UNIT   51 AT END OF TIME STEP    1, STRESS PERIOD  128
1
  VOLUMETRIC BUDGET FOR ENTIRE MODEL AT END OF TIME STEP    1, STRESS PERIOD 128
  ------------------------------------------------------------------------------

     CUMULATIVE VOLUMES      L**3       RATES FOR THIS TIME STEP      L**3/T
     ------------------                 ------------------------

           IN:                                      IN:
           ---                                      ---
             STORAGE =         505.7478               STORAGE =          12.8783
       CONSTANT HEAD =           0.0000         CONSTANT HEAD =           0.0000
       RIVER LEAKAGE =           0.0000         RIVER LEAKAGE =           0.0000
            RECHARGE =        1323.3047              RECHARGE =           0.0000

            TOTAL IN =        1829.0525              TOTAL IN =          12.8783

          OUT:                                     OUT:
          ----                                     ----
             STORAGE =         501.9376               STORAGE =           0.0000
       CONSTANT HEAD =         429.8050         CONSTANT HEAD =           3.3798
       RIVER LEAKAGE =         740.6151         RIVER LEAKAGE =           1.9511
            RECHARGE =         156.6954              RECHARGE =           7.5474

           TOTAL OUT =        1829.0531             TOTAL OUT =          12.8783

            IN - OUT =      -6.1035E-04              IN - OUT =      -2.7657E-05

 PERCENT DISCREPANCY =          -0.00     PERCENT DISCREPANCY =          -0.00






         TIME SUMMARY AT END OF TIME STEP    1 IN STRESS PERIOD  128
                    SECONDS     MINUTES      HOURS       DAYS        YEARS
                    -----------------------------------------------------------
   TIME STEP LENGTH  86400.      1440.0      24.000      1.0000     2.73785E-03
 STRESS PERIOD TIME  86400.      1440.0      24.000      1.0000     2.73785E-03
         TOTAL TIME 1.10592E+07 1.84320E+05  3072.0      128.00     0.35044    
1
1
                            STRESS PERIOD NO.  129, LENGTH =   1.000000    
                            -----------------------------------------------

                              NUMBER OF TIME STEPS =     1

                               MULTIPLIER FOR DELT =     1.000

                            INITIAL TIME STEP SIZE =   1.000000    

 REUSING NON-PARAMETER RIVER REACHES FROM LAST STRESS PERIOD

      2 RIVER REACHES

                 RECHARGE = -5.086207E-04
 
 SOLVING FOR HEAD 

 OUTPUT CONTROL FOR STRESS PERIOD  129   TIME STEP    1
    SAVE HEAD FOR ALL LAYERS

 HEAD WILL BE SAVED ON UNIT   51 AT END OF TIME STEP    1, STRESS PERIOD  129
1
  VOLUMETRIC BUDGET FOR ENTIRE MODEL AT END OF TIME STEP    1, STRESS PERIOD 129
  ------------------------------------------------------------------------------

     CUMULATIVE VOLUMES      L**3       RATES FOR THIS TIME STEP      L**3/T
     ------------------                 ------------------------

           IN:                                      IN:
           ---                                      ---
             STORAGE =         516.1139               STORAGE =          10.3661
       CONSTANT HEAD =           0.0000         CONSTANT HEAD =           0.0000
       RIVER LEAKAGE =           0.0000         RIVER LEAKAGE =           0.0000
            RECHARGE =        1323.3047              RECHARGE =           0.0000

            TOTAL IN =        1839.4186              TOTAL IN =          10.3661

          OUT:                                     OUT:
          ----                                     ----
             STORAGE =         501.9376               STORAGE =           0.0000
       CONSTANT HEAD =         433.1825         CONSTANT HEAD =           3.3775
       RIVER LEAKAGE =         742.5173         RIVER LEAKAGE =           1.9022
            RECHARGE =         161.7816              RECHARGE =           5.0862

           TOTAL OUT =        1839.4191             TOTAL OUT =          10.3659

            IN - OUT =      -4.8828E-04              IN - OUT =       1.8501E-04

 PERCENT DISCREPANCY =          -0.00     PERCENT DISCREPANCY =           0.00






         TIME SUMMARY AT END OF TIME STEP    1 IN STRESS PERIOD  129
                    SECONDS     MINUTES      HOURS       DAYS        YEARS
                    -----------------------------------------------------------
   TIME STEP LENGTH  86400.      1440.0      24.000      1.0000     2.73785E-03
 STRESS PERIOD TIME  86400.      1440.0      24.000      1.0000     2.73785E-03
         TOTAL TIME 1.11456E+07 1.85760E+05  3096.0      129.00     0.35318    
1
1
                            STRESS PERIOD NO.  130, LENGTH =   1.000000    
                            -----------------------------------------------

                              NUMBER OF TIME STEPS =     1

                               MULTIPLIER FOR DELT =     1.000

                            INITIAL TIME STEP SIZE =   1.000000    

 REUSING NON-PARAMETER RIVER REACHES FROM LAST STRESS PERIOD

      2 RIVER REACHES

                 RECHARGE = -4.564655E-04
 
 SOLVING FOR HEAD 

 OUTPUT CONTROL FOR STRESS PERIOD  130   TIME STEP    1
    SAVE HEAD FOR ALL LAYERS

 HEAD WILL BE SAVED ON UNIT   51 AT END OF TIME STEP    1, STRESS PERIOD  130
1
  VOLUMETRIC BUDGET FOR ENTIRE MODEL AT END OF TIME STEP    1, STRESS PERIOD 130
  ------------------------------------------------------------------------------

     CUMULATIVE VOLUMES      L**3       RATES FOR THIS TIME STEP      L**3/T
     ------------------                 ------------------------

           IN:                                      IN:
           ---                                      ---
             STORAGE =         525.9120               STORAGE =           9.7982
       CONSTANT HEAD =           0.0000         CONSTANT HEAD =           0.0000
       RIVER LEAKAGE =           0.0000         RIVER LEAKAGE =           0.0000
            RECHARGE =        1323.3047              RECHARGE =           0.0000

            TOTAL IN =        1849.2168              TOTAL IN =           9.7982

          OUT:                                     OUT:
          ----                                     ----
             STORAGE =         501.9376               STORAGE =           0.0000
       CONSTANT HEAD =         436.5577         CONSTANT HEAD =           3.3753
       RIVER LEAKAGE =         744.3754         RIVER LEAKAGE =           1.8581
            RECHARGE =         166.3463              RECHARGE =           4.5647

           TOTAL OUT =        1849.2170             TOTAL OUT =           9.7980

            IN - OUT =      -2.4414E-04              IN - OUT =       1.6212E-04

 PERCENT DISCREPANCY =          -0.00     PERCENT DISCREPANCY =           0.00






         TIME SUMMARY AT END OF TIME STEP    1 IN STRESS PERIOD  130
                    SECONDS     MINUTES      HOURS       DAYS        YEARS
                    -----------------------------------------------------------
   TIME STEP LENGTH  86400.      1440.0      24.000      1.0000     2.73785E-03
 STRESS PERIOD TIME  86400.      1440.0      24.000      1.0000     2.73785E-03
         TOTAL TIME 1.12320E+07 1.87200E+05  3120.0      130.00     0.35592    
1
1
                            STRESS PERIOD NO.  131, LENGTH =   1.000000    
                            -----------------------------------------------

                              NUMBER OF TIME STEPS =     1

                               MULTIPLIER FOR DELT =     1.000

                            INITIAL TIME STEP SIZE =   1.000000    

 REUSING NON-PARAMETER RIVER REACHES FROM LAST STRESS PERIOD

      2 RIVER REACHES

                 RECHARGE = -8.090517E-04
 
 SOLVING FOR HEAD 

 OUTPUT CONTROL FOR STRESS PERIOD  131   TIME STEP    1
    SAVE HEAD FOR ALL LAYERS

 HEAD WILL BE SAVED ON UNIT   51 AT END OF TIME STEP    1, STRESS PERIOD  131
1
  VOLUMETRIC BUDGET FOR ENTIRE MODEL AT END OF TIME STEP    1, STRESS PERIOD 131
  ------------------------------------------------------------------------------

     CUMULATIVE VOLUMES      L**3       RATES FOR THIS TIME STEP      L**3/T
     ------------------                 ------------------------

           IN:                                      IN:
           ---                                      ---
             STORAGE =         539.0577               STORAGE =          13.1456
       CONSTANT HEAD =           0.0000         CONSTANT HEAD =           0.0000
       RIVER LEAKAGE =           0.0000         RIVER LEAKAGE =           0.0000
            RECHARGE =        1323.3047              RECHARGE =           0.0000

            TOTAL IN =        1862.3623              TOTAL IN =          13.1456

          OUT:                                     OUT:
          ----                                     ----
             STORAGE =         501.9376               STORAGE =           0.0000
       CONSTANT HEAD =         439.9305         CONSTANT HEAD =           3.3728
       RIVER LEAKAGE =         746.0577         RIVER LEAKAGE =           1.6823
            RECHARGE =         174.4368              RECHARGE =           8.0905

           TOTAL OUT =        1862.3627             TOTAL OUT =          13.1457

            IN - OUT =      -3.6621E-04              IN - OUT =      -3.6240E-05

 PERCENT DISCREPANCY =          -0.00     PERCENT DISCREPANCY =          -0.00






         TIME SUMMARY AT END OF TIME STEP    1 IN STRESS PERIOD  131
                    SECONDS     MINUTES      HOURS       DAYS        YEARS
                    -----------------------------------------------------------
   TIME STEP LENGTH  86400.      1440.0      24.000      1.0000     2.73785E-03
 STRESS PERIOD TIME  86400.      1440.0      24.000      1.0000     2.73785E-03
         TOTAL TIME 1.13184E+07 1.88640E+05  3144.0      131.00     0.35866    
1
1
                            STRESS PERIOD NO.  132, LENGTH =   1.000000    
                            -----------------------------------------------

                              NUMBER OF TIME STEPS =     1

                               MULTIPLIER FOR DELT =     1.000

                            INITIAL TIME STEP SIZE =   1.000000    

 REUSING NON-PARAMETER RIVER REACHES FROM LAST STRESS PERIOD

      2 RIVER REACHES

                 RECHARGE = -1.793103E-04
 
 SOLVING FOR HEAD 

 OUTPUT CONTROL FOR STRESS PERIOD  132   TIME STEP    1
    SAVE HEAD FOR ALL LAYERS

 HEAD WILL BE SAVED ON UNIT   51 AT END OF TIME STEP    1, STRESS PERIOD  132
1
  VOLUMETRIC BUDGET FOR ENTIRE MODEL AT END OF TIME STEP    1, STRESS PERIOD 132
  ------------------------------------------------------------------------------

     CUMULATIVE VOLUMES      L**3       RATES FOR THIS TIME STEP      L**3/T
     ------------------                 ------------------------

           IN:                                      IN:
           ---                                      ---
             STORAGE =         546.0676               STORAGE =           7.0099
       CONSTANT HEAD =           0.0000         CONSTANT HEAD =           0.0000
       RIVER LEAKAGE =           0.0000         RIVER LEAKAGE =           0.0000
            RECHARGE =        1323.3047              RECHARGE =           0.0000

            TOTAL IN =        1869.3723              TOTAL IN =           7.0099

          OUT:                                     OUT:
          ----                                     ----
             STORAGE =         502.0134               STORAGE =       7.5805E-02
       CONSTANT HEAD =         443.3010         CONSTANT HEAD =           3.3705
       RIVER LEAKAGE =         747.8284         RIVER LEAKAGE =           1.7707
            RECHARGE =         176.2299              RECHARGE =           1.7931

           TOTAL OUT =        1869.3727             TOTAL OUT =           7.0101

            IN - OUT =      -3.6621E-04              IN - OUT =      -1.5831E-04

 PERCENT DISCREPANCY =          -0.00     PERCENT DISCREPANCY =          -0.00






         TIME SUMMARY AT END OF TIME STEP    1 IN STRESS PERIOD  132
                    SECONDS     MINUTES      HOURS       DAYS        YEARS
                    -----------------------------------------------------------
   TIME STEP LENGTH  86400.      1440.0      24.000      1.0000     2.73785E-03
 STRESS PERIOD TIME  86400.      1440.0      24.000      1.0000     2.73785E-03
         TOTAL TIME 1.14048E+07 1.90080E+05  3168.0      132.00     0.36140    
1
1
                            STRESS PERIOD NO.  133, LENGTH =   1.000000    
                            -----------------------------------------------

                              NUMBER OF TIME STEPS =     1

                               MULTIPLIER FOR DELT =     1.000

                            INITIAL TIME STEP SIZE =   1.000000    

 REUSING NON-PARAMETER RIVER REACHES FROM LAST STRESS PERIOD

      2 RIVER REACHES

                 RECHARGE = -7.474138E-04
 
 SOLVING FOR HEAD 

 OUTPUT CONTROL FOR STRESS PERIOD  133   TIME STEP    1
    SAVE HEAD FOR ALL LAYERS

 HEAD WILL BE SAVED ON UNIT   51 AT END OF TIME STEP    1, STRESS PERIOD  133
1
  VOLUMETRIC BUDGET FOR ENTIRE MODEL AT END OF TIME STEP    1, STRESS PERIOD 133
  ------------------------------------------------------------------------------

     CUMULATIVE VOLUMES      L**3       RATES FOR THIS TIME STEP      L**3/T
     ------------------                 ------------------------

           IN:                                      IN:
           ---                                      ---
             STORAGE =         558.5038               STORAGE =          12.4362
       CONSTANT HEAD =           0.0000         CONSTANT HEAD =           0.0000
       RIVER LEAKAGE =           0.0000         RIVER LEAKAGE =           0.0000
            RECHARGE =        1323.3047              RECHARGE =           0.0000

            TOTAL IN =        1881.8085              TOTAL IN =          12.4362

          OUT:                                     OUT:
          ----                                     ----
             STORAGE =         502.0134               STORAGE =           0.0000
       CONSTANT HEAD =         446.6690         CONSTANT HEAD =           3.3680
       RIVER LEAKAGE =         749.4227         RIVER LEAKAGE =           1.5943
            RECHARGE =         183.7040              RECHARGE =           7.4741

           TOTAL OUT =        1881.8092             TOTAL OUT =          12.4364

            IN - OUT =      -7.3242E-04              IN - OUT =      -1.8406E-04

 PERCENT DISCREPANCY =          -0.00     PERCENT DISCREPANCY =          -0.00






         TIME SUMMARY AT END OF TIME STEP    1 IN STRESS PERIOD  133
                    SECONDS     MINUTES      HOURS       DAYS        YEARS
                    -----------------------------------------------------------
   TIME STEP LENGTH  86400.      1440.0      24.000      1.0000     2.73785E-03
 STRESS PERIOD TIME  86400.      1440.0      24.000      1.0000     2.73785E-03
         TOTAL TIME 1.14912E+07 1.91520E+05  3192.0      133.00     0.36413    
1
1
                            STRESS PERIOD NO.  134, LENGTH =   1.000000    
                            -----------------------------------------------

                              NUMBER OF TIME STEPS =     1

                               MULTIPLIER FOR DELT =     1.000

                            INITIAL TIME STEP SIZE =   1.000000    

 REUSING NON-PARAMETER RIVER REACHES FROM LAST STRESS PERIOD

      2 RIVER REACHES

                 RECHARGE = -9.137931E-04
 
 SOLVING FOR HEAD 

 OUTPUT CONTROL FOR STRESS PERIOD  134   TIME STEP    1
    SAVE HEAD FOR ALL LAYERS

 HEAD WILL BE SAVED ON UNIT   51 AT END OF TIME STEP    1, STRESS PERIOD  134
1
  VOLUMETRIC BUDGET FOR ENTIRE MODEL AT END OF TIME STEP    1, STRESS PERIOD 134
  ------------------------------------------------------------------------------

     CUMULATIVE VOLUMES      L**3       RATES FOR THIS TIME STEP      L**3/T
     ------------------                 ------------------------

           IN:                                      IN:
           ---                                      ---
             STORAGE =         572.4200               STORAGE =          13.9163
       CONSTANT HEAD =           0.0000         CONSTANT HEAD =           0.0000
       RIVER LEAKAGE =           0.0000         RIVER LEAKAGE =           0.0000
            RECHARGE =        1323.3047              RECHARGE =           0.0000

            TOTAL IN =        1895.7247              TOTAL IN =          13.9163

          OUT:                                     OUT:
          ----                                     ----
             STORAGE =         502.0134               STORAGE =           0.0000
       CONSTANT HEAD =         450.0344         CONSTANT HEAD =           3.3654
       RIVER LEAKAGE =         750.8356         RIVER LEAKAGE =           1.4128
            RECHARGE =         192.8419              RECHARGE =           9.1379

           TOTAL OUT =        1895.7253             TOTAL OUT =          13.9161

            IN - OUT =      -6.1035E-04              IN - OUT =       1.5259E-04

 PERCENT DISCREPANCY =          -0.00     PERCENT DISCREPANCY =           0.00






         TIME SUMMARY AT END OF TIME STEP    1 IN STRESS PERIOD  134
                    SECONDS     MINUTES      HOURS       DAYS        YEARS
                    -----------------------------------------------------------
   TIME STEP LENGTH  86400.      1440.0      24.000      1.0000     2.73785E-03
 STRESS PERIOD TIME  86400.      1440.0      24.000      1.0000     2.73785E-03
         TOTAL TIME 1.15776E+07 1.92960E+05  3216.0      134.00     0.36687    
1
1
                            STRESS PERIOD NO.  135, LENGTH =   1.000000    
                            -----------------------------------------------

                              NUMBER OF TIME STEPS =     1

                               MULTIPLIER FOR DELT =     1.000

                            INITIAL TIME STEP SIZE =   1.000000    

 REUSING NON-PARAMETER RIVER REACHES FROM LAST STRESS PERIOD

      2 RIVER REACHES

                 RECHARGE = -2.758621E-04
 
 SOLVING FOR HEAD 

 OUTPUT CONTROL FOR STRESS PERIOD  135   TIME STEP    1
    SAVE HEAD FOR ALL LAYERS

 HEAD WILL BE SAVED ON UNIT   51 AT END OF TIME STEP    1, STRESS PERIOD  135
1
  VOLUMETRIC BUDGET FOR ENTIRE MODEL AT END OF TIME STEP    1, STRESS PERIOD 135
  ------------------------------------------------------------------------------

     CUMULATIVE VOLUMES      L**3       RATES FOR THIS TIME STEP      L**3/T
     ------------------                 ------------------------

           IN:                                      IN:
           ---                                      ---
             STORAGE =         580.0895               STORAGE =           7.6694
       CONSTANT HEAD =           0.0000         CONSTANT HEAD =           0.0000
       RIVER LEAKAGE =           0.0000         RIVER LEAKAGE =           0.0000
            RECHARGE =        1323.3047              RECHARGE =           0.0000

            TOTAL IN =        1903.3942              TOTAL IN =           7.6694

          OUT:                                     OUT:
          ----                                     ----
             STORAGE =         502.0680               STORAGE =       5.4562E-02
       CONSTANT HEAD =         453.3972         CONSTANT HEAD =           3.3628
       RIVER LEAKAGE =         752.3291         RIVER LEAKAGE =           1.4935
            RECHARGE =         195.6006              RECHARGE =           2.7586

           TOTAL OUT =        1903.3949             TOTAL OUT =           7.6696

            IN - OUT =      -7.3242E-04              IN - OUT =      -1.3685E-04

 PERCENT DISCREPANCY =          -0.00     PERCENT DISCREPANCY =          -0.00






         TIME SUMMARY AT END OF TIME STEP    1 IN STRESS PERIOD  135
                    SECONDS     MINUTES      HOURS       DAYS        YEARS
                    -----------------------------------------------------------
   TIME STEP LENGTH  86400.      1440.0      24.000      1.0000     2.73785E-03
 STRESS PERIOD TIME  86400.      1440.0      24.000      1.0000     2.73785E-03
         TOTAL TIME 1.16640E+07 1.94400E+05  3240.0      135.00     0.36961    
1
1
                            STRESS PERIOD NO.  136, LENGTH =   1.000000    
                            -----------------------------------------------

                              NUMBER OF TIME STEPS =     1

                               MULTIPLIER FOR DELT =     1.000

                            INITIAL TIME STEP SIZE =   1.000000    

 REUSING NON-PARAMETER RIVER REACHES FROM LAST STRESS PERIOD

      2 RIVER REACHES

                 RECHARGE = -1.155603E-03
 
 SOLVING FOR HEAD 

 OUTPUT CONTROL FOR STRESS PERIOD  136   TIME STEP    1
    SAVE HEAD FOR ALL LAYERS

 HEAD WILL BE SAVED ON UNIT   51 AT END OF TIME STEP    1, STRESS PERIOD  136
1
  VOLUMETRIC BUDGET FOR ENTIRE MODEL AT END OF TIME STEP    1, STRESS PERIOD 136
  ------------------------------------------------------------------------------

     CUMULATIVE VOLUMES      L**3       RATES FOR THIS TIME STEP      L**3/T
     ------------------                 ------------------------

           IN:                                      IN:
           ---                                      ---
             STORAGE =         596.2057               STORAGE =          16.1162
       CONSTANT HEAD =           0.0000         CONSTANT HEAD =           0.0000
       RIVER LEAKAGE =           0.0000         RIVER LEAKAGE =           0.0000
            RECHARGE =        1323.3047              RECHARGE =           0.0000

            TOTAL IN =        1919.5104              TOTAL IN =          16.1162

          OUT:                                     OUT:
          ----                                     ----
             STORAGE =         502.0680               STORAGE =           0.0000
       CONSTANT HEAD =         456.7573         CONSTANT HEAD =           3.3600
       RIVER LEAKAGE =         753.5291         RIVER LEAKAGE =           1.2000
            RECHARGE =         207.1566              RECHARGE =          11.5560

           TOTAL OUT =        1919.5111             TOTAL OUT =          16.1161

            IN - OUT =      -7.3242E-04              IN - OUT =       1.3924E-04

 PERCENT DISCREPANCY =          -0.00     PERCENT DISCREPANCY =           0.00






         TIME SUMMARY AT END OF TIME STEP    1 IN STRESS PERIOD  136
                    SECONDS     MINUTES      HOURS       DAYS        YEARS
                    -----------------------------------------------------------
   TIME STEP LENGTH  86400.      1440.0      24.000      1.0000     2.73785E-03
 STRESS PERIOD TIME  86400.      1440.0      24.000      1.0000     2.73785E-03
         TOTAL TIME 1.17504E+07 1.95840E+05  3264.0      136.00     0.37235    
1
1
                            STRESS PERIOD NO.  137, LENGTH =   1.000000    
                            -----------------------------------------------

                              NUMBER OF TIME STEPS =     1

                               MULTIPLIER FOR DELT =     1.000

                            INITIAL TIME STEP SIZE =   1.000000    

 REUSING NON-PARAMETER RIVER REACHES FROM LAST STRESS PERIOD

      2 RIVER REACHES

                 RECHARGE = -9.987069E-04
 
 SOLVING FOR HEAD 

 OUTPUT CONTROL FOR STRESS PERIOD  137   TIME STEP    1
    SAVE HEAD FOR ALL LAYERS

 HEAD WILL BE SAVED ON UNIT   51 AT END OF TIME STEP    1, STRESS PERIOD  137
1
  VOLUMETRIC BUDGET FOR ENTIRE MODEL AT END OF TIME STEP    1, STRESS PERIOD 137
  ------------------------------------------------------------------------------

     CUMULATIVE VOLUMES      L**3       RATES FOR THIS TIME STEP      L**3/T
     ------------------                 ------------------------

           IN:                                      IN:
           ---                                      ---
             STORAGE =         610.6057               STORAGE =          14.3999
       CONSTANT HEAD =           0.0000         CONSTANT HEAD =           0.0000
       RIVER LEAKAGE =           0.0000         RIVER LEAKAGE =           0.0000
            RECHARGE =        1323.3047              RECHARGE =           0.0000

            TOTAL IN =        1933.9104              TOTAL IN =          14.3999

          OUT:                                     OUT:
          ----                                     ----
             STORAGE =         502.0680               STORAGE =           0.0000
       CONSTANT HEAD =         460.1144         CONSTANT HEAD =           3.3571
       RIVER LEAKAGE =         754.5850         RIVER LEAKAGE =           1.0559
            RECHARGE =         217.1437              RECHARGE =           9.9871

           TOTAL OUT =        1933.9111             TOTAL OUT =          14.4001

            IN - OUT =      -7.3242E-04              IN - OUT =      -2.0504E-04

 PERCENT DISCREPANCY =          -0.00     PERCENT DISCREPANCY =          -0.00






         TIME SUMMARY AT END OF TIME STEP    1 IN STRESS PERIOD  137
                    SECONDS     MINUTES      HOURS       DAYS        YEARS
                    -----------------------------------------------------------
   TIME STEP LENGTH  86400.      1440.0      24.000      1.0000     2.73785E-03
 STRESS PERIOD TIME  86400.      1440.0      24.000      1.0000     2.73785E-03
         TOTAL TIME 1.18368E+07 1.97280E+05  3288.0      137.00     0.37509    
1
1
                            STRESS PERIOD NO.  138, LENGTH =   1.000000    
                            -----------------------------------------------

                              NUMBER OF TIME STEPS =     1

                               MULTIPLIER FOR DELT =     1.000

                            INITIAL TIME STEP SIZE =   1.000000    

 REUSING NON-PARAMETER RIVER REACHES FROM LAST STRESS PERIOD

      2 RIVER REACHES

                 RECHARGE = -1.123276E-03
 
 SOLVING FOR HEAD 

 OUTPUT CONTROL FOR STRESS PERIOD  138   TIME STEP    1
    SAVE HEAD FOR ALL LAYERS

 HEAD WILL BE SAVED ON UNIT   51 AT END OF TIME STEP    1, STRESS PERIOD  138
1
  VOLUMETRIC BUDGET FOR ENTIRE MODEL AT END OF TIME STEP    1, STRESS PERIOD 138
  ------------------------------------------------------------------------------

     CUMULATIVE VOLUMES      L**3       RATES FOR THIS TIME STEP      L**3/T
     ------------------                 ------------------------

           IN:                                      IN:
           ---                                      ---
             STORAGE =         626.0735               STORAGE =          15.4678
       CONSTANT HEAD =           0.0000         CONSTANT HEAD =           0.0000
       RIVER LEAKAGE =           0.0000         RIVER LEAKAGE =           0.0000
            RECHARGE =        1323.3047              RECHARGE =           0.0000

            TOTAL IN =        1949.3782              TOTAL IN =          15.4678

          OUT:                                     OUT:
          ----                                     ----
             STORAGE =         502.0680               STORAGE =           0.0000
       CONSTANT HEAD =         463.4685         CONSTANT HEAD =           3.3541
       RIVER LEAKAGE =         755.4659         RIVER LEAKAGE =           0.8809
            RECHARGE =         228.3764              RECHARGE =          11.2328

           TOTAL OUT =        1949.3789             TOTAL OUT =          15.4678

            IN - OUT =      -7.3242E-04              IN - OUT =       5.5313E-05

 PERCENT DISCREPANCY =          -0.00     PERCENT DISCREPANCY =           0.00






         TIME SUMMARY AT END OF TIME STEP    1 IN STRESS PERIOD  138
                    SECONDS     MINUTES      HOURS       DAYS        YEARS
                    -----------------------------------------------------------
   TIME STEP LENGTH  86400.      1440.0      24.000      1.0000     2.73785E-03
 STRESS PERIOD TIME  86400.      1440.0      24.000      1.0000     2.73785E-03
         TOTAL TIME 1.19232E+07 1.98720E+05  3312.0      138.00     0.37782    
1
1
                            STRESS PERIOD NO.  139, LENGTH =   1.000000    
                            -----------------------------------------------

                              NUMBER OF TIME STEPS =     1

                               MULTIPLIER FOR DELT =     1.000

                            INITIAL TIME STEP SIZE =   1.000000    

 REUSING NON-PARAMETER RIVER REACHES FROM LAST STRESS PERIOD

      2 RIVER REACHES

                 RECHARGE = -4.758621E-04
 
 SOLVING FOR HEAD 

 OUTPUT CONTROL FOR STRESS PERIOD  139   TIME STEP    1
    SAVE HEAD FOR ALL LAYERS

 HEAD WILL BE SAVED ON UNIT   51 AT END OF TIME STEP    1, STRESS PERIOD  139
1
  VOLUMETRIC BUDGET FOR ENTIRE MODEL AT END OF TIME STEP    1, STRESS PERIOD 139
  ------------------------------------------------------------------------------

     CUMULATIVE VOLUMES      L**3       RATES FOR THIS TIME STEP      L**3/T
     ------------------                 ------------------------

           IN:                                      IN:
           ---                                      ---
             STORAGE =         635.1846               STORAGE =           9.1111
       CONSTANT HEAD =           0.0000         CONSTANT HEAD =           0.0000
       RIVER LEAKAGE =           0.0000         RIVER LEAKAGE =           0.0000
            RECHARGE =        1323.3047              RECHARGE =           0.0000

            TOTAL IN =        1958.4893              TOTAL IN =           9.1111

          OUT:                                     OUT:
          ----                                     ----
             STORAGE =         502.1108               STORAGE =       4.2797E-02
       CONSTANT HEAD =         466.8197         CONSTANT HEAD =           3.3512
       RIVER LEAKAGE =         756.4242         RIVER LEAKAGE =           0.9582
            RECHARGE =         233.1350              RECHARGE =           4.7586

           TOTAL OUT =        1958.4897             TOTAL OUT =           9.1109

            IN - OUT =      -4.8828E-04              IN - OUT =       2.5845E-04

 PERCENT DISCREPANCY =          -0.00     PERCENT DISCREPANCY =           0.00






         TIME SUMMARY AT END OF TIME STEP    1 IN STRESS PERIOD  139
                    SECONDS     MINUTES      HOURS       DAYS        YEARS
                    -----------------------------------------------------------
   TIME STEP LENGTH  86400.      1440.0      24.000      1.0000     2.73785E-03
 STRESS PERIOD TIME  86400.      1440.0      24.000      1.0000     2.73785E-03
         TOTAL TIME 1.20096E+07 2.00160E+05  3336.0      139.00     0.38056    
1
1
                            STRESS PERIOD NO.  140, LENGTH =   1.000000    
                            -----------------------------------------------

                              NUMBER OF TIME STEPS =     1

                               MULTIPLIER FOR DELT =     1.000

                            INITIAL TIME STEP SIZE =   1.000000    

 REUSING NON-PARAMETER RIVER REACHES FROM LAST STRESS PERIOD

      2 RIVER REACHES

                 RECHARGE = -4.896552E-04
 
 SOLVING FOR HEAD 

 OUTPUT CONTROL FOR STRESS PERIOD  140   TIME STEP    1
    SAVE HEAD FOR ALL LAYERS

 HEAD WILL BE SAVED ON UNIT   51 AT END OF TIME STEP    1, STRESS PERIOD  140
1
  VOLUMETRIC BUDGET FOR ENTIRE MODEL AT END OF TIME STEP    1, STRESS PERIOD 140
  ------------------------------------------------------------------------------

     CUMULATIVE VOLUMES      L**3       RATES FOR THIS TIME STEP      L**3/T
     ------------------                 ------------------------

           IN:                                      IN:
           ---                                      ---
             STORAGE =         644.3887               STORAGE =           9.2041
       CONSTANT HEAD =           0.0000         CONSTANT HEAD =           0.0000
       RIVER LEAKAGE =           0.0000         RIVER LEAKAGE =           0.0000
            RECHARGE =        1323.3047              RECHARGE =           0.0000

            TOTAL IN =        1967.6934              TOTAL IN =           9.2041

          OUT:                                     OUT:
          ----                                     ----
             STORAGE =         502.1108               STORAGE =       4.7922E-05
       CONSTANT HEAD =         470.1680         CONSTANT HEAD =           3.3483
       RIVER LEAKAGE =         757.3834         RIVER LEAKAGE =           0.9592
            RECHARGE =         238.0316              RECHARGE =           4.8966

           TOTAL OUT =        1967.6938             TOTAL OUT =           9.2041

            IN - OUT =      -4.8828E-04              IN - OUT =       4.0054E-05

 PERCENT DISCREPANCY =          -0.00     PERCENT DISCREPANCY =           0.00






         TIME SUMMARY AT END OF TIME STEP    1 IN STRESS PERIOD  140
                    SECONDS     MINUTES      HOURS       DAYS        YEARS
                    -----------------------------------------------------------
   TIME STEP LENGTH  86400.      1440.0      24.000      1.0000     2.73785E-03
 STRESS PERIOD TIME  86400.      1440.0      24.000      1.0000     2.73785E-03
         TOTAL TIME 1.20960E+07 2.01600E+05  3360.0      140.00     0.38330    
1
1
                            STRESS PERIOD NO.  141, LENGTH =   1.000000    
                            -----------------------------------------------

                              NUMBER OF TIME STEPS =     1

                               MULTIPLIER FOR DELT =     1.000

                            INITIAL TIME STEP SIZE =   1.000000    

 REUSING NON-PARAMETER RIVER REACHES FROM LAST STRESS PERIOD

      2 RIVER REACHES

                 RECHARGE = -1.355172E-03
 
 SOLVING FOR HEAD 

 OUTPUT CONTROL FOR STRESS PERIOD  141   TIME STEP    1
    SAVE HEAD FOR ALL LAYERS

 HEAD WILL BE SAVED ON UNIT   51 AT END OF TIME STEP    1, STRESS PERIOD  141
1
  VOLUMETRIC BUDGET FOR ENTIRE MODEL AT END OF TIME STEP    1, STRESS PERIOD 141
  ------------------------------------------------------------------------------

     CUMULATIVE VOLUMES      L**3       RATES FOR THIS TIME STEP      L**3/T
     ------------------                 ------------------------

           IN:                                      IN:
           ---                                      ---
             STORAGE =         661.9223               STORAGE =          17.5336
       CONSTANT HEAD =           0.0000         CONSTANT HEAD =           0.0000
       RIVER LEAKAGE =           0.0000         RIVER LEAKAGE =           0.0000
            RECHARGE =        1323.3047              RECHARGE =           0.0000

            TOTAL IN =        1985.2271              TOTAL IN =          17.5336

          OUT:                                     OUT:
          ----                                     ----
             STORAGE =         502.1108               STORAGE =           0.0000
       CONSTANT HEAD =         473.5131         CONSTANT HEAD =           3.3451
       RIVER LEAKAGE =         758.0201         RIVER LEAKAGE =           0.6368
            RECHARGE =         251.5833              RECHARGE =          13.5517

           TOTAL OUT =        1985.2273             TOTAL OUT =          17.5336

            IN - OUT =      -2.4414E-04              IN - OUT =      -3.6240E-05

 PERCENT DISCREPANCY =          -0.00     PERCENT DISCREPANCY =          -0.00






         TIME SUMMARY AT END OF TIME STEP    1 IN STRESS PERIOD  141
                    SECONDS     MINUTES      HOURS       DAYS        YEARS
                    -----------------------------------------------------------
   TIME STEP LENGTH  86400.      1440.0      24.000      1.0000     2.73785E-03
 STRESS PERIOD TIME  86400.      1440.0      24.000      1.0000     2.73785E-03
         TOTAL TIME 1.21824E+07 2.03040E+05  3384.0      141.00     0.38604    
1
1
                            STRESS PERIOD NO.  142, LENGTH =   1.000000    
                            -----------------------------------------------

                              NUMBER OF TIME STEPS =     1

                               MULTIPLIER FOR DELT =     1.000

                            INITIAL TIME STEP SIZE =   1.000000    

 REUSING NON-PARAMETER RIVER REACHES FROM LAST STRESS PERIOD

      2 RIVER REACHES

                 RECHARGE = -1.522414E-03
 
 SOLVING FOR HEAD 

 OUTPUT CONTROL FOR STRESS PERIOD  142   TIME STEP    1
    SAVE HEAD FOR ALL LAYERS

 HEAD WILL BE SAVED ON UNIT   51 AT END OF TIME STEP    1, STRESS PERIOD  142
1
  VOLUMETRIC BUDGET FOR ENTIRE MODEL AT END OF TIME STEP    1, STRESS PERIOD 142
  ------------------------------------------------------------------------------

     CUMULATIVE VOLUMES      L**3       RATES FOR THIS TIME STEP      L**3/T
     ------------------                 ------------------------

           IN:                                      IN:
           ---                                      ---
             STORAGE =         680.8480               STORAGE =          18.9257
       CONSTANT HEAD =           0.0000         CONSTANT HEAD =           0.0000
       RIVER LEAKAGE =           0.0000         RIVER LEAKAGE =           0.0000
            RECHARGE =        1323.3047              RECHARGE =           0.0000

            TOTAL IN =        2004.1526              TOTAL IN =          18.9257

          OUT:                                     OUT:
          ----                                     ----
             STORAGE =         502.1108               STORAGE =           0.0000
       CONSTANT HEAD =         476.8548         CONSTANT HEAD =           3.3417
       RIVER LEAKAGE =         758.3801         RIVER LEAKAGE =           0.3600
            RECHARGE =         266.8075              RECHARGE =          15.2241

           TOTAL OUT =        2004.1532             TOTAL OUT =          18.9258

            IN - OUT =      -6.1035E-04              IN - OUT =      -1.3924E-04

 PERCENT DISCREPANCY =          -0.00     PERCENT DISCREPANCY =          -0.00






         TIME SUMMARY AT END OF TIME STEP    1 IN STRESS PERIOD  142
                    SECONDS     MINUTES      HOURS       DAYS        YEARS
                    -----------------------------------------------------------
   TIME STEP LENGTH  86400.      1440.0      24.000      1.0000     2.73785E-03
 STRESS PERIOD TIME  86400.      1440.0      24.000      1.0000     2.73785E-03
         TOTAL TIME 1.22688E+07 2.04480E+05  3408.0      142.00     0.38877    
1
1
                            STRESS PERIOD NO.  143, LENGTH =   1.000000    
                            -----------------------------------------------

                              NUMBER OF TIME STEPS =     1

                               MULTIPLIER FOR DELT =     1.000

                            INITIAL TIME STEP SIZE =   1.000000    

 REUSING NON-PARAMETER RIVER REACHES FROM LAST STRESS PERIOD

      2 RIVER REACHES

                 RECHARGE = -2.775862E-04
 
 SOLVING FOR HEAD 

 OUTPUT CONTROL FOR STRESS PERIOD  143   TIME STEP    1
    SAVE HEAD FOR ALL LAYERS

 HEAD WILL BE SAVED ON UNIT   51 AT END OF TIME STEP    1, STRESS PERIOD  143
1
  VOLUMETRIC BUDGET FOR ENTIRE MODEL AT END OF TIME STEP    1, STRESS PERIOD 143
  ------------------------------------------------------------------------------

     CUMULATIVE VOLUMES      L**3       RATES FOR THIS TIME STEP      L**3/T
     ------------------                 ------------------------

           IN:                                      IN:
           ---                                      ---
             STORAGE =         687.8364               STORAGE =           6.9884
       CONSTANT HEAD =           0.0000         CONSTANT HEAD =           0.0000
       RIVER LEAKAGE =           0.0000         RIVER LEAKAGE =           0.0000
            RECHARGE =        1323.3047              RECHARGE =           0.0000

            TOTAL IN =        2011.1411              TOTAL IN =           6.9884

          OUT:                                     OUT:
          ----                                     ----
             STORAGE =         502.4084               STORAGE =           0.2975
       CONSTANT HEAD =         480.1934         CONSTANT HEAD =           3.3386
       RIVER LEAKAGE =         758.9568         RIVER LEAKAGE =           0.5767
            RECHARGE =         269.5833              RECHARGE =           2.7759

           TOTAL OUT =        2011.1418             TOTAL OUT =           6.9886

            IN - OUT =      -7.3242E-04              IN - OUT =      -1.7405E-04

 PERCENT DISCREPANCY =          -0.00     PERCENT DISCREPANCY =          -0.00






         TIME SUMMARY AT END OF TIME STEP    1 IN STRESS PERIOD  143
                    SECONDS     MINUTES      HOURS       DAYS        YEARS
                    -----------------------------------------------------------
   TIME STEP LENGTH  86400.      1440.0      24.000      1.0000     2.73785E-03
 STRESS PERIOD TIME  86400.      1440.0      24.000      1.0000     2.73785E-03
         TOTAL TIME 1.23552E+07 2.05920E+05  3432.0      143.00     0.39151    
1
1
                            STRESS PERIOD NO.  144, LENGTH =   1.000000    
                            -----------------------------------------------

                              NUMBER OF TIME STEPS =     1

                               MULTIPLIER FOR DELT =     1.000

                            INITIAL TIME STEP SIZE =   1.000000    

 REUSING NON-PARAMETER RIVER REACHES FROM LAST STRESS PERIOD

      2 RIVER REACHES

                 RECHARGE =  1.047414E-03
 
 SOLVING FOR HEAD 

 OUTPUT CONTROL FOR STRESS PERIOD  144   TIME STEP    1
    SAVE HEAD FOR ALL LAYERS

 HEAD WILL BE SAVED ON UNIT   51 AT END OF TIME STEP    1, STRESS PERIOD  144
1
  VOLUMETRIC BUDGET FOR ENTIRE MODEL AT END OF TIME STEP    1, STRESS PERIOD 144
  ------------------------------------------------------------------------------

     CUMULATIVE VOLUMES      L**3       RATES FOR THIS TIME STEP      L**3/T
     ------------------                 ------------------------

           IN:                                      IN:
           ---                                      ---
             STORAGE =         688.0471               STORAGE =           0.2108
       CONSTANT HEAD =           0.0000         CONSTANT HEAD =           0.0000
       RIVER LEAKAGE =           0.0000         RIVER LEAKAGE =           0.0000
            RECHARGE =        1333.7788              RECHARGE =          10.4741

            TOTAL IN =        2021.8259              TOTAL IN =          10.6849

          OUT:                                     OUT:
          ----                                     ----
             STORAGE =         508.6373               STORAGE =           6.2290
       CONSTANT HEAD =         483.5293         CONSTANT HEAD =           3.3359
       RIVER LEAKAGE =         760.0768         RIVER LEAKAGE =           1.1201
            RECHARGE =         269.5833              RECHARGE =           0.0000

           TOTAL OUT =        2021.8267             TOTAL OUT =          10.6850

            IN - OUT =      -7.3242E-04              IN - OUT =      -8.6784E-05

 PERCENT DISCREPANCY =          -0.00     PERCENT DISCREPANCY =          -0.00






         TIME SUMMARY AT END OF TIME STEP    1 IN STRESS PERIOD  144
                    SECONDS     MINUTES      HOURS       DAYS        YEARS
                    -----------------------------------------------------------
   TIME STEP LENGTH  86400.      1440.0      24.000      1.0000     2.73785E-03
 STRESS PERIOD TIME  86400.      1440.0      24.000      1.0000     2.73785E-03
         TOTAL TIME 1.24416E+07 2.07360E+05  3456.0      144.00     0.39425    
1
1
                            STRESS PERIOD NO.  145, LENGTH =   1.000000    
                            -----------------------------------------------

                              NUMBER OF TIME STEPS =     1

                               MULTIPLIER FOR DELT =     1.000

                            INITIAL TIME STEP SIZE =   1.000000    

 REUSING NON-PARAMETER RIVER REACHES FROM LAST STRESS PERIOD

      2 RIVER REACHES

                 RECHARGE = -8.318966E-04
 
 SOLVING FOR HEAD 

 OUTPUT CONTROL FOR STRESS PERIOD  145   TIME STEP    1
    SAVE HEAD FOR ALL LAYERS

 HEAD WILL BE SAVED ON UNIT   51 AT END OF TIME STEP    1, STRESS PERIOD  145
1
  VOLUMETRIC BUDGET FOR ENTIRE MODEL AT END OF TIME STEP    1, STRESS PERIOD 145
  ------------------------------------------------------------------------------

     CUMULATIVE VOLUMES      L**3       RATES FOR THIS TIME STEP      L**3/T
     ------------------                 ------------------------

           IN:                                      IN:
           ---                                      ---
             STORAGE =         700.4883               STORAGE =          12.4411
       CONSTANT HEAD =           0.0000         CONSTANT HEAD =           0.0000
       RIVER LEAKAGE =           0.0000         RIVER LEAKAGE =           0.0000
            RECHARGE =        1333.7788              RECHARGE =           0.0000

            TOTAL IN =        2034.2671              TOTAL IN =          12.4411

          OUT:                                     OUT:
          ----                                     ----
             STORAGE =         508.6373               STORAGE =           0.0000
       CONSTANT HEAD =         486.8622         CONSTANT HEAD =           3.3329
       RIVER LEAKAGE =         760.8661         RIVER LEAKAGE =           0.7892
            RECHARGE =         277.9023              RECHARGE =           8.3190

           TOTAL OUT =        2034.2678             TOTAL OUT =          12.4411

            IN - OUT =      -7.3242E-04              IN - OUT =      -2.8610E-06

 PERCENT DISCREPANCY =          -0.00     PERCENT DISCREPANCY =          -0.00






         TIME SUMMARY AT END OF TIME STEP    1 IN STRESS PERIOD  145
                    SECONDS     MINUTES      HOURS       DAYS        YEARS
                    -----------------------------------------------------------
   TIME STEP LENGTH  86400.      1440.0      24.000      1.0000     2.73785E-03
 STRESS PERIOD TIME  86400.      1440.0      24.000      1.0000     2.73785E-03
         TOTAL TIME 1.25280E+07 2.08800E+05  3480.0      145.00     0.39699    
1
1
                            STRESS PERIOD NO.  146, LENGTH =   1.000000    
                            -----------------------------------------------

                              NUMBER OF TIME STEPS =     1

                               MULTIPLIER FOR DELT =     1.000

                            INITIAL TIME STEP SIZE =   1.000000    

 REUSING NON-PARAMETER RIVER REACHES FROM LAST STRESS PERIOD

      2 RIVER REACHES

                 RECHARGE = -6.474138E-04
 
 SOLVING FOR HEAD 

 OUTPUT CONTROL FOR STRESS PERIOD  146   TIME STEP    1
    SAVE HEAD FOR ALL LAYERS

 HEAD WILL BE SAVED ON UNIT   51 AT END OF TIME STEP    1, STRESS PERIOD  146
1
  VOLUMETRIC BUDGET FOR ENTIRE MODEL AT END OF TIME STEP    1, STRESS PERIOD 146
  ------------------------------------------------------------------------------

     CUMULATIVE VOLUMES      L**3       RATES FOR THIS TIME STEP      L**3/T
     ------------------                 ------------------------

           IN:                                      IN:
           ---                                      ---
             STORAGE =         710.9762               STORAGE =          10.4879
       CONSTANT HEAD =           0.0000         CONSTANT HEAD =           0.0000
       RIVER LEAKAGE =           0.0000         RIVER LEAKAGE =           0.0000
            RECHARGE =        1333.7788              RECHARGE =           0.0000

            TOTAL IN =        2044.7550              TOTAL IN =          10.4879

          OUT:                                     OUT:
          ----                                     ----
             STORAGE =         508.6373               STORAGE =           0.0000
       CONSTANT HEAD =         490.1920         CONSTANT HEAD =           3.3298
       RIVER LEAKAGE =         761.5501         RIVER LEAKAGE =           0.6840
            RECHARGE =         284.3764              RECHARGE =           6.4741

           TOTAL OUT =        2044.7559             TOTAL OUT =          10.4880

            IN - OUT =      -8.5449E-04              IN - OUT =      -1.0300E-04

 PERCENT DISCREPANCY =          -0.00     PERCENT DISCREPANCY =          -0.00






         TIME SUMMARY AT END OF TIME STEP    1 IN STRESS PERIOD  146
                    SECONDS     MINUTES      HOURS       DAYS        YEARS
                    -----------------------------------------------------------
   TIME STEP LENGTH  86400.      1440.0      24.000      1.0000     2.73785E-03
 STRESS PERIOD TIME  86400.      1440.0      24.000      1.0000     2.73785E-03
         TOTAL TIME 1.26144E+07 2.10240E+05  3504.0      146.00     0.39973    
1
1
                            STRESS PERIOD NO.  147, LENGTH =   1.000000    
                            -----------------------------------------------

                              NUMBER OF TIME STEPS =     1

                               MULTIPLIER FOR DELT =     1.000

                            INITIAL TIME STEP SIZE =   1.000000    

 REUSING NON-PARAMETER RIVER REACHES FROM LAST STRESS PERIOD

      2 RIVER REACHES

                 RECHARGE = -1.402155E-03
 
 SOLVING FOR HEAD 

 OUTPUT CONTROL FOR STRESS PERIOD  147   TIME STEP    1
    SAVE HEAD FOR ALL LAYERS

 HEAD WILL BE SAVED ON UNIT   51 AT END OF TIME STEP    1, STRESS PERIOD  147
1
  VOLUMETRIC BUDGET FOR ENTIRE MODEL AT END OF TIME STEP    1, STRESS PERIOD 147
  ------------------------------------------------------------------------------

     CUMULATIVE VOLUMES      L**3       RATES FOR THIS TIME STEP      L**3/T
     ------------------                 ------------------------

           IN:                                      IN:
           ---                                      ---
             STORAGE =         728.6600               STORAGE =          17.6838
       CONSTANT HEAD =           0.0000         CONSTANT HEAD =           0.0000
       RIVER LEAKAGE =           0.0000         RIVER LEAKAGE =           0.0000
            RECHARGE =        1333.7788              RECHARGE =           0.0000

            TOTAL IN =        2062.4387              TOTAL IN =          17.6838

          OUT:                                     OUT:
          ----                                     ----
             STORAGE =         508.6373               STORAGE =           0.0000
       CONSTANT HEAD =         493.5185         CONSTANT HEAD =           3.3264
       RIVER LEAKAGE =         761.8861         RIVER LEAKAGE =           0.3360
            RECHARGE =         298.3980              RECHARGE =          14.0216

           TOTAL OUT =        2062.4399             TOTAL OUT =          17.6840

            IN - OUT =      -1.2207E-03              IN - OUT =      -2.0218E-04

 PERCENT DISCREPANCY =          -0.00     PERCENT DISCREPANCY =          -0.00






         TIME SUMMARY AT END OF TIME STEP    1 IN STRESS PERIOD  147
                    SECONDS     MINUTES      HOURS       DAYS        YEARS
                    -----------------------------------------------------------
   TIME STEP LENGTH  86400.      1440.0      24.000      1.0000     2.73785E-03
 STRESS PERIOD TIME  86400.      1440.0      24.000      1.0000     2.73785E-03
         TOTAL TIME 1.27008E+07 2.11680E+05  3528.0      147.00     0.40246    
1
1
                            STRESS PERIOD NO.  148, LENGTH =   1.000000    
                            -----------------------------------------------

                              NUMBER OF TIME STEPS =     1

                               MULTIPLIER FOR DELT =     1.000

                            INITIAL TIME STEP SIZE =   1.000000    

 REUSING NON-PARAMETER RIVER REACHES FROM LAST STRESS PERIOD

      2 RIVER REACHES

                 RECHARGE = -8.702586E-04
 
 SOLVING FOR HEAD 

 OUTPUT CONTROL FOR STRESS PERIOD  148   TIME STEP    1
    SAVE HEAD FOR ALL LAYERS

 HEAD WILL BE SAVED ON UNIT   51 AT END OF TIME STEP    1, STRESS PERIOD  148
1
  VOLUMETRIC BUDGET FOR ENTIRE MODEL AT END OF TIME STEP    1, STRESS PERIOD 148
  ------------------------------------------------------------------------------

     CUMULATIVE VOLUMES      L**3       RATES FOR THIS TIME STEP      L**3/T
     ------------------                 ------------------------

           IN:                                      IN:
           ---                                      ---
             STORAGE =         740.9689               STORAGE =          12.3089
       CONSTANT HEAD =           0.0000         CONSTANT HEAD =           0.0000
       RIVER LEAKAGE =           0.0000         RIVER LEAKAGE =           0.0000
            RECHARGE =        1333.7788              RECHARGE =           0.0000

            TOTAL IN =        2074.7476              TOTAL IN =          12.3089

          OUT:                                     OUT:
          ----                                     ----
             STORAGE =         508.6373               STORAGE =           0.0000
       CONSTANT HEAD =         496.8416         CONSTANT HEAD =           3.3231
       RIVER LEAKAGE =         762.1693         RIVER LEAKAGE =           0.2831
            RECHARGE =         307.1006              RECHARGE =           8.7026

           TOTAL OUT =        2074.7488             TOTAL OUT =          12.3088

            IN - OUT =      -1.2207E-03              IN - OUT =       1.3828E-04

 PERCENT DISCREPANCY =          -0.00     PERCENT DISCREPANCY =           0.00






         TIME SUMMARY AT END OF TIME STEP    1 IN STRESS PERIOD  148
                    SECONDS     MINUTES      HOURS       DAYS        YEARS
                    -----------------------------------------------------------
   TIME STEP LENGTH  86400.      1440.0      24.000      1.0000     2.73785E-03
 STRESS PERIOD TIME  86400.      1440.0      24.000      1.0000     2.73785E-03
         TOTAL TIME 1.27872E+07 2.13120E+05  3552.0      148.00     0.40520    
1
1
                            STRESS PERIOD NO.  149, LENGTH =   1.000000    
                            -----------------------------------------------

                              NUMBER OF TIME STEPS =     1

                               MULTIPLIER FOR DELT =     1.000

                            INITIAL TIME STEP SIZE =   1.000000    

 REUSING NON-PARAMETER RIVER REACHES FROM LAST STRESS PERIOD

      2 RIVER REACHES

                 RECHARGE = -4.547414E-04
 
 SOLVING FOR HEAD 

 OUTPUT CONTROL FOR STRESS PERIOD  149   TIME STEP    1
    SAVE HEAD FOR ALL LAYERS

 HEAD WILL BE SAVED ON UNIT   51 AT END OF TIME STEP    1, STRESS PERIOD  149
1
  VOLUMETRIC BUDGET FOR ENTIRE MODEL AT END OF TIME STEP    1, STRESS PERIOD 149
  ------------------------------------------------------------------------------

     CUMULATIVE VOLUMES      L**3       RATES FOR THIS TIME STEP      L**3/T
     ------------------                 ------------------------

           IN:                                      IN:
           ---                                      ---
             STORAGE =         749.2251               STORAGE =           8.2562
       CONSTANT HEAD =           0.0000         CONSTANT HEAD =           0.0000
       RIVER LEAKAGE =           0.0000         RIVER LEAKAGE =           0.0000
            RECHARGE =        1333.7788              RECHARGE =           0.0000

            TOTAL IN =        2083.0039              TOTAL IN =           8.2562

          OUT:                                     OUT:
          ----                                     ----
             STORAGE =         508.6783               STORAGE =       4.0960E-02
       CONSTANT HEAD =         500.1613         CONSTANT HEAD =           3.3198
       RIVER LEAKAGE =         762.5172         RIVER LEAKAGE =           0.3479
            RECHARGE =         311.6480              RECHARGE =           4.5474

           TOTAL OUT =        2083.0046             TOTAL OUT =           8.2560

            IN - OUT =      -7.3242E-04              IN - OUT =       1.5736E-04

 PERCENT DISCREPANCY =          -0.00     PERCENT DISCREPANCY =           0.00






         TIME SUMMARY AT END OF TIME STEP    1 IN STRESS PERIOD  149
                    SECONDS     MINUTES      HOURS       DAYS        YEARS
                    -----------------------------------------------------------
   TIME STEP LENGTH  86400.      1440.0      24.000      1.0000     2.73785E-03
 STRESS PERIOD TIME  86400.      1440.0      24.000      1.0000     2.73785E-03
         TOTAL TIME 1.28736E+07 2.14560E+05  3576.0      149.00     0.40794    
1
1
                            STRESS PERIOD NO.  150, LENGTH =   1.000000    
                            -----------------------------------------------

                              NUMBER OF TIME STEPS =     1

                               MULTIPLIER FOR DELT =     1.000

                            INITIAL TIME STEP SIZE =   1.000000    

 REUSING NON-PARAMETER RIVER REACHES FROM LAST STRESS PERIOD

      2 RIVER REACHES

                 RECHARGE = -5.650862E-04
 
 SOLVING FOR HEAD 

 OUTPUT CONTROL FOR STRESS PERIOD  150   TIME STEP    1
    SAVE HEAD FOR ALL LAYERS

 HEAD WILL BE SAVED ON UNIT   51 AT END OF TIME STEP    1, STRESS PERIOD  150
1
  VOLUMETRIC BUDGET FOR ENTIRE MODEL AT END OF TIME STEP    1, STRESS PERIOD 150
  ------------------------------------------------------------------------------

     CUMULATIVE VOLUMES      L**3       RATES FOR THIS TIME STEP      L**3/T
     ------------------                 ------------------------

           IN:                                      IN:
           ---                                      ---
             STORAGE =         758.5095               STORAGE =           9.2844
       CONSTANT HEAD =           0.0000         CONSTANT HEAD =           0.0000
       RIVER LEAKAGE =           0.0000         RIVER LEAKAGE =           0.0000
            RECHARGE =        1333.7788              RECHARGE =           0.0000

            TOTAL IN =        2092.2883              TOTAL IN =           9.2844

          OUT:                                     OUT:
          ----                                     ----
             STORAGE =         508.6783               STORAGE =           0.0000
       CONSTANT HEAD =         503.4778         CONSTANT HEAD =           3.3165
       RIVER LEAKAGE =         762.8341         RIVER LEAKAGE =           0.3170
            RECHARGE =         317.2988              RECHARGE =           5.6509

           TOTAL OUT =        2092.2891             TOTAL OUT =           9.2843

            IN - OUT =      -7.3242E-04              IN - OUT =       9.8228E-05

 PERCENT DISCREPANCY =          -0.00     PERCENT DISCREPANCY =           0.00






         TIME SUMMARY AT END OF TIME STEP    1 IN STRESS PERIOD  150
                    SECONDS     MINUTES      HOURS       DAYS        YEARS
                    -----------------------------------------------------------
   TIME STEP LENGTH  86400.      1440.0      24.000      1.0000     2.73785E-03
 STRESS PERIOD TIME  86400.      1440.0      24.000      1.0000     2.73785E-03
         TOTAL TIME 1.29600E+07 2.16000E+05  3600.0      150.00     0.41068    
1
1
                            STRESS PERIOD NO.  151, LENGTH =   1.000000    
                            -----------------------------------------------

                              NUMBER OF TIME STEPS =     1

                               MULTIPLIER FOR DELT =     1.000

                            INITIAL TIME STEP SIZE =   1.000000    

 REUSING NON-PARAMETER RIVER REACHES FROM LAST STRESS PERIOD

      2 RIVER REACHES

                 RECHARGE = -7.922414E-04
 
 SOLVING FOR HEAD 

 OUTPUT CONTROL FOR STRESS PERIOD  151   TIME STEP    1
    SAVE HEAD FOR ALL LAYERS

 HEAD WILL BE SAVED ON UNIT   51 AT END OF TIME STEP    1, STRESS PERIOD  151
1
  VOLUMETRIC BUDGET FOR ENTIRE MODEL AT END OF TIME STEP    1, STRESS PERIOD 151
  ------------------------------------------------------------------------------

     CUMULATIVE VOLUMES      L**3       RATES FOR THIS TIME STEP      L**3/T
     ------------------                 ------------------------

           IN:                                      IN:
           ---                                      ---
             STORAGE =         769.9473               STORAGE =          11.4378
       CONSTANT HEAD =           0.0000         CONSTANT HEAD =           0.0000
       RIVER LEAKAGE =           0.0000         RIVER LEAKAGE =           0.0000
            RECHARGE =        1333.7788              RECHARGE =           0.0000

            TOTAL IN =        2103.7261              TOTAL IN =          11.4378

          OUT:                                     OUT:
          ----                                     ----
             STORAGE =         508.6783               STORAGE =           0.0000
       CONSTANT HEAD =         506.7909         CONSTANT HEAD =           3.3131
       RIVER LEAKAGE =         763.0362         RIVER LEAKAGE =           0.2021
            RECHARGE =         325.2213              RECHARGE =           7.9224

           TOTAL OUT =        2103.7266             TOTAL OUT =          11.4376

            IN - OUT =      -4.8828E-04              IN - OUT =       2.4796E-04

 PERCENT DISCREPANCY =          -0.00     PERCENT DISCREPANCY =           0.00






         TIME SUMMARY AT END OF TIME STEP    1 IN STRESS PERIOD  151
                    SECONDS     MINUTES      HOURS       DAYS        YEARS
                    -----------------------------------------------------------
   TIME STEP LENGTH  86400.      1440.0      24.000      1.0000     2.73785E-03
 STRESS PERIOD TIME  86400.      1440.0      24.000      1.0000     2.73785E-03
         TOTAL TIME 1.30464E+07 2.17440E+05  3624.0      151.00     0.41342    
1
1
                            STRESS PERIOD NO.  152, LENGTH =   1.000000    
                            -----------------------------------------------

                              NUMBER OF TIME STEPS =     1

                               MULTIPLIER FOR DELT =     1.000

                            INITIAL TIME STEP SIZE =   1.000000    

 REUSING NON-PARAMETER RIVER REACHES FROM LAST STRESS PERIOD

      2 RIVER REACHES

                 RECHARGE = -8.728448E-04
 
 SOLVING FOR HEAD 

 OUTPUT CONTROL FOR STRESS PERIOD  152   TIME STEP    1
    SAVE HEAD FOR ALL LAYERS

 HEAD WILL BE SAVED ON UNIT   51 AT END OF TIME STEP    1, STRESS PERIOD  152
1
  VOLUMETRIC BUDGET FOR ENTIRE MODEL AT END OF TIME STEP    1, STRESS PERIOD 152
  ------------------------------------------------------------------------------

     CUMULATIVE VOLUMES      L**3       RATES FOR THIS TIME STEP      L**3/T
     ------------------                 ------------------------

           IN:                                      IN:
           ---                                      ---
             STORAGE =         782.0707               STORAGE =          12.1234
       CONSTANT HEAD =           0.0000         CONSTANT HEAD =           0.0000
       RIVER LEAKAGE =           0.0000         RIVER LEAKAGE =           0.0000
            RECHARGE =        1333.7788              RECHARGE =           0.0000

            TOTAL IN =        2115.8496              TOTAL IN =          12.1234

          OUT:                                     OUT:
          ----                                     ----
             STORAGE =         508.6783               STORAGE =           0.0000
       CONSTANT HEAD =         510.1004         CONSTANT HEAD =           3.3096
       RIVER LEAKAGE =         763.1215         RIVER LEAKAGE =       8.5298E-02
            RECHARGE =         333.9497              RECHARGE =           8.7284

           TOTAL OUT =        2115.8499             TOTAL OUT =          12.1233

            IN - OUT =      -2.4414E-04              IN - OUT =       4.4823E-05

 PERCENT DISCREPANCY =          -0.00     PERCENT DISCREPANCY =           0.00






         TIME SUMMARY AT END OF TIME STEP    1 IN STRESS PERIOD  152
                    SECONDS     MINUTES      HOURS       DAYS        YEARS
                    -----------------------------------------------------------
   TIME STEP LENGTH  86400.      1440.0      24.000      1.0000     2.73785E-03
 STRESS PERIOD TIME  86400.      1440.0      24.000      1.0000     2.73785E-03
         TOTAL TIME 1.31328E+07 2.18880E+05  3648.0      152.00     0.41615    
1
1
                            STRESS PERIOD NO.  153, LENGTH =   1.000000    
                            -----------------------------------------------

                              NUMBER OF TIME STEPS =     1

                               MULTIPLIER FOR DELT =     1.000

                            INITIAL TIME STEP SIZE =   1.000000    

 REUSING NON-PARAMETER RIVER REACHES FROM LAST STRESS PERIOD

      2 RIVER REACHES

                 RECHARGE = -1.515086E-03
 
 SOLVING FOR HEAD 

 OUTPUT CONTROL FOR STRESS PERIOD  153   TIME STEP    1
    SAVE HEAD FOR ALL LAYERS

 HEAD WILL BE SAVED ON UNIT   51 AT END OF TIME STEP    1, STRESS PERIOD  153
1
  VOLUMETRIC BUDGET FOR ENTIRE MODEL AT END OF TIME STEP    1, STRESS PERIOD 153
  ------------------------------------------------------------------------------

     CUMULATIVE VOLUMES      L**3       RATES FOR THIS TIME STEP      L**3/T
     ------------------                 ------------------------

           IN:                                      IN:
           ---                                      ---
             STORAGE =         800.2915               STORAGE =          18.2209
       CONSTANT HEAD =           0.0000         CONSTANT HEAD =           0.0000
       RIVER LEAKAGE =           0.2360         RIVER LEAKAGE =           0.2360
            RECHARGE =        1333.7788              RECHARGE =           0.0000

            TOTAL IN =        2134.3062              TOTAL IN =          18.4568

          OUT:                                     OUT:
          ----                                     ----
             STORAGE =         508.6783               STORAGE =           0.0000
       CONSTANT HEAD =         513.4062         CONSTANT HEAD =           3.3058
       RIVER LEAKAGE =         763.1215         RIVER LEAKAGE =           0.0000
            RECHARGE =         349.1006              RECHARGE =          15.1509

           TOTAL OUT =        2134.3066             TOTAL OUT =          18.4567

            IN - OUT =      -4.8828E-04              IN - OUT =       1.4496E-04

 PERCENT DISCREPANCY =          -0.00     PERCENT DISCREPANCY =           0.00






         TIME SUMMARY AT END OF TIME STEP    1 IN STRESS PERIOD  153
                    SECONDS     MINUTES      HOURS       DAYS        YEARS
                    -----------------------------------------------------------
   TIME STEP LENGTH  86400.      1440.0      24.000      1.0000     2.73785E-03
 STRESS PERIOD TIME  86400.      1440.0      24.000      1.0000     2.73785E-03
         TOTAL TIME 1.32192E+07 2.20320E+05  3672.0      153.00     0.41889    
1
1
                            STRESS PERIOD NO.  154, LENGTH =   1.000000    
                            -----------------------------------------------

                              NUMBER OF TIME STEPS =     1

                               MULTIPLIER FOR DELT =     1.000

                            INITIAL TIME STEP SIZE =   1.000000    

 REUSING NON-PARAMETER RIVER REACHES FROM LAST STRESS PERIOD

      2 RIVER REACHES

                 RECHARGE = -9.918103E-04
 
 SOLVING FOR HEAD 

 OUTPUT CONTROL FOR STRESS PERIOD  154   TIME STEP    1
    SAVE HEAD FOR ALL LAYERS

 HEAD WILL BE SAVED ON UNIT   51 AT END OF TIME STEP    1, STRESS PERIOD  154
1
  VOLUMETRIC BUDGET FOR ENTIRE MODEL AT END OF TIME STEP    1, STRESS PERIOD 154
  ------------------------------------------------------------------------------

     CUMULATIVE VOLUMES      L**3       RATES FOR THIS TIME STEP      L**3/T
     ------------------                 ------------------------

           IN:                                      IN:
           ---                                      ---
             STORAGE =         813.2300               STORAGE =          12.9385
       CONSTANT HEAD =           0.0000         CONSTANT HEAD =           0.0000
       RIVER LEAKAGE =           0.5177         RIVER LEAKAGE =           0.2817
            RECHARGE =        1333.7788              RECHARGE =           0.0000

            TOTAL IN =        2147.5266              TOTAL IN =          13.2203

          OUT:                                     OUT:
          ----                                     ----
             STORAGE =         508.6783               STORAGE =           0.0000
       CONSTANT HEAD =         516.7083         CONSTANT HEAD =           3.3021
       RIVER LEAKAGE =         763.1215         RIVER LEAKAGE =           0.0000
            RECHARGE =         359.0186              RECHARGE =           9.9181

           TOTAL OUT =        2147.5266             TOTAL OUT =          13.2202

            IN - OUT =           0.0000              IN - OUT =       9.0599E-05

 PERCENT DISCREPANCY =           0.00     PERCENT DISCREPANCY =           0.00






         TIME SUMMARY AT END OF TIME STEP    1 IN STRESS PERIOD  154
                    SECONDS     MINUTES      HOURS       DAYS        YEARS
                    -----------------------------------------------------------
   TIME STEP LENGTH  86400.      1440.0      24.000      1.0000     2.73785E-03
 STRESS PERIOD TIME  86400.      1440.0      24.000      1.0000     2.73785E-03
         TOTAL TIME 1.33056E+07 2.21760E+05  3696.0      154.00     0.42163    
1
1
                            STRESS PERIOD NO.  155, LENGTH =   1.000000    
                            -----------------------------------------------

                              NUMBER OF TIME STEPS =     1

                               MULTIPLIER FOR DELT =     1.000

                            INITIAL TIME STEP SIZE =   1.000000    

 REUSING NON-PARAMETER RIVER REACHES FROM LAST STRESS PERIOD

      2 RIVER REACHES

                 RECHARGE = -2.166379E-03
 
 SOLVING FOR HEAD 

 OUTPUT CONTROL FOR STRESS PERIOD  155   TIME STEP    1
    SAVE HEAD FOR ALL LAYERS

 HEAD WILL BE SAVED ON UNIT   51 AT END OF TIME STEP    1, STRESS PERIOD  155
1
  VOLUMETRIC BUDGET FOR ENTIRE MODEL AT END OF TIME STEP    1, STRESS PERIOD 155
  ------------------------------------------------------------------------------

     CUMULATIVE VOLUMES      L**3       RATES FOR THIS TIME STEP      L**3/T
     ------------------                 ------------------------

           IN:                                      IN:
           ---                                      ---
             STORAGE =         837.4227               STORAGE =          24.1926
       CONSTANT HEAD =           0.0000         CONSTANT HEAD =           0.0000
       RIVER LEAKAGE =           1.2866         RIVER LEAKAGE =           0.7689
            RECHARGE =        1333.7788              RECHARGE =           0.0000

            TOTAL IN =        2172.4880              TOTAL IN =          24.9615

          OUT:                                     OUT:
          ----                                     ----
             STORAGE =         508.6783               STORAGE =           0.0000
       CONSTANT HEAD =         520.0062         CONSTANT HEAD =           3.2979
       RIVER LEAKAGE =         763.1215         RIVER LEAKAGE =           0.0000
            RECHARGE =         380.6824              RECHARGE =          21.6638

           TOTAL OUT =        2172.4883             TOTAL OUT =          24.9617

            IN - OUT =      -2.4414E-04              IN - OUT =      -1.2207E-04

 PERCENT DISCREPANCY =          -0.00     PERCENT DISCREPANCY =          -0.00






         TIME SUMMARY AT END OF TIME STEP    1 IN STRESS PERIOD  155
                    SECONDS     MINUTES      HOURS       DAYS        YEARS
                    -----------------------------------------------------------
   TIME STEP LENGTH  86400.      1440.0      24.000      1.0000     2.73785E-03
 STRESS PERIOD TIME  86400.      1440.0      24.000      1.0000     2.73785E-03
         TOTAL TIME 1.33920E+07 2.23200E+05  3720.0      155.00     0.42437    
1
1
                            STRESS PERIOD NO.  156, LENGTH =   1.000000    
                            -----------------------------------------------

                              NUMBER OF TIME STEPS =     1

                               MULTIPLIER FOR DELT =     1.000

                            INITIAL TIME STEP SIZE =   1.000000    

 REUSING NON-PARAMETER RIVER REACHES FROM LAST STRESS PERIOD

      2 RIVER REACHES

                 RECHARGE = -1.336207E-05
 
 SOLVING FOR HEAD 

 OUTPUT CONTROL FOR STRESS PERIOD  156   TIME STEP    1
    SAVE HEAD FOR ALL LAYERS

 HEAD WILL BE SAVED ON UNIT   51 AT END OF TIME STEP    1, STRESS PERIOD  156
1
  VOLUMETRIC BUDGET FOR ENTIRE MODEL AT END OF TIME STEP    1, STRESS PERIOD 156
  ------------------------------------------------------------------------------

     CUMULATIVE VOLUMES      L**3       RATES FOR THIS TIME STEP      L**3/T
     ------------------                 ------------------------

           IN:                                      IN:
           ---                                      ---
             STORAGE =         841.5259               STORAGE =           4.1032
       CONSTANT HEAD =           0.0000         CONSTANT HEAD =           0.0000
       RIVER LEAKAGE =           1.6431         RIVER LEAKAGE =           0.3565
            RECHARGE =        1333.7788              RECHARGE =           0.0000

            TOTAL IN =        2176.9478              TOTAL IN =           4.4597

          OUT:                                     OUT:
          ----                                     ----
             STORAGE =         509.7103               STORAGE =           1.0321
       CONSTANT HEAD =         523.3004         CONSTANT HEAD =           3.2942
       RIVER LEAKAGE =         763.1215         RIVER LEAKAGE =           0.0000
            RECHARGE =         380.8160              RECHARGE =           0.1336

           TOTAL OUT =        2176.9482             TOTAL OUT =           4.4599

            IN - OUT =      -4.8828E-04              IN - OUT =      -1.4782E-04

 PERCENT DISCREPANCY =          -0.00     PERCENT DISCREPANCY =          -0.00






         TIME SUMMARY AT END OF TIME STEP    1 IN STRESS PERIOD  156
                    SECONDS     MINUTES      HOURS       DAYS        YEARS
                    -----------------------------------------------------------
   TIME STEP LENGTH  86400.      1440.0      24.000      1.0000     2.73785E-03
 STRESS PERIOD TIME  86400.      1440.0      24.000      1.0000     2.73785E-03
         TOTAL TIME 1.34784E+07 2.24640E+05  3744.0      156.00     0.42710    
1
1
                            STRESS PERIOD NO.  157, LENGTH =   1.000000    
                            -----------------------------------------------

                              NUMBER OF TIME STEPS =     1

                               MULTIPLIER FOR DELT =     1.000

                            INITIAL TIME STEP SIZE =   1.000000    

 REUSING NON-PARAMETER RIVER REACHES FROM LAST STRESS PERIOD

      2 RIVER REACHES

                 RECHARGE =  2.189655E-04
 
 SOLVING FOR HEAD 

 OUTPUT CONTROL FOR STRESS PERIOD  157   TIME STEP    1
    SAVE HEAD FOR ALL LAYERS

 HEAD WILL BE SAVED ON UNIT   51 AT END OF TIME STEP    1, STRESS PERIOD  157
1
  VOLUMETRIC BUDGET FOR ENTIRE MODEL AT END OF TIME STEP    1, STRESS PERIOD 157
  ------------------------------------------------------------------------------

     CUMULATIVE VOLUMES      L**3       RATES FOR THIS TIME STEP      L**3/T
     ------------------                 ------------------------

           IN:                                      IN:
           ---                                      ---
             STORAGE =         843.9955               STORAGE =           2.4697
       CONSTANT HEAD =           0.0000         CONSTANT HEAD =           0.0000
       RIVER LEAKAGE =           1.7318         RIVER LEAKAGE =       8.8699E-02
            RECHARGE =        1335.9685              RECHARGE =           2.1897

            TOTAL IN =        2181.6958              TOTAL IN =           4.7480

          OUT:                                     OUT:
          ----                                     ----
             STORAGE =         511.1676               STORAGE =           1.4572
       CONSTANT HEAD =         526.5911         CONSTANT HEAD =           3.2908
       RIVER LEAKAGE =         763.1215         RIVER LEAKAGE =           0.0000
            RECHARGE =         380.8160              RECHARGE =           0.0000

           TOTAL OUT =        2181.6963             TOTAL OUT =           4.7480

            IN - OUT =      -4.8828E-04              IN - OUT =       2.3365E-05

 PERCENT DISCREPANCY =          -0.00     PERCENT DISCREPANCY =           0.00






         TIME SUMMARY AT END OF TIME STEP    1 IN STRESS PERIOD  157
                    SECONDS     MINUTES      HOURS       DAYS        YEARS
                    -----------------------------------------------------------
   TIME STEP LENGTH  86400.      1440.0      24.000      1.0000     2.73785E-03
 STRESS PERIOD TIME  86400.      1440.0      24.000      1.0000     2.73785E-03
         TOTAL TIME 1.35648E+07 2.26080E+05  3768.0      157.00     0.42984    
1
1
                            STRESS PERIOD NO.  158, LENGTH =   1.000000    
                            -----------------------------------------------

                              NUMBER OF TIME STEPS =     1

                               MULTIPLIER FOR DELT =     1.000

                            INITIAL TIME STEP SIZE =   1.000000    

 REUSING NON-PARAMETER RIVER REACHES FROM LAST STRESS PERIOD

      2 RIVER REACHES

                 RECHARGE = -5.077586E-04
 
 SOLVING FOR HEAD 

 OUTPUT CONTROL FOR STRESS PERIOD  158   TIME STEP    1
    SAVE HEAD FOR ALL LAYERS

 HEAD WILL BE SAVED ON UNIT   51 AT END OF TIME STEP    1, STRESS PERIOD  158
1
  VOLUMETRIC BUDGET FOR ENTIRE MODEL AT END OF TIME STEP    1, STRESS PERIOD 158
  ------------------------------------------------------------------------------

     CUMULATIVE VOLUMES      L**3       RATES FOR THIS TIME STEP      L**3/T
     ------------------                 ------------------------

           IN:                                      IN:
           ---                                      ---
             STORAGE =         852.1821               STORAGE =           8.1865
       CONSTANT HEAD =           0.0000         CONSTANT HEAD =           0.0000
       RIVER LEAKAGE =           1.9098         RIVER LEAKAGE =           0.1780
            RECHARGE =        1335.9685              RECHARGE =           0.0000

            TOTAL IN =        2190.0603              TOTAL IN =           8.3645

          OUT:                                     OUT:
          ----                                     ----
             STORAGE =         511.1676               STORAGE =           0.0000
       CONSTANT HEAD =         529.8783         CONSTANT HEAD =           3.2872
       RIVER LEAKAGE =         763.1215         RIVER LEAKAGE =           0.0000
            RECHARGE =         385.8936              RECHARGE =           5.0776

           TOTAL OUT =        2190.0610             TOTAL OUT =           8.3648

            IN - OUT =      -7.3242E-04              IN - OUT =      -2.3460E-04

 PERCENT DISCREPANCY =          -0.00     PERCENT DISCREPANCY =          -0.00






         TIME SUMMARY AT END OF TIME STEP    1 IN STRESS PERIOD  158
                    SECONDS     MINUTES      HOURS       DAYS        YEARS
                    -----------------------------------------------------------
   TIME STEP LENGTH  86400.      1440.0      24.000      1.0000     2.73785E-03
 STRESS PERIOD TIME  86400.      1440.0      24.000      1.0000     2.73785E-03
         TOTAL TIME 1.36512E+07 2.27520E+05  3792.0      158.00     0.43258    
1
1
                            STRESS PERIOD NO.  159, LENGTH =   1.000000    
                            -----------------------------------------------

                              NUMBER OF TIME STEPS =     1

                               MULTIPLIER FOR DELT =     1.000

                            INITIAL TIME STEP SIZE =   1.000000    

 REUSING NON-PARAMETER RIVER REACHES FROM LAST STRESS PERIOD

      2 RIVER REACHES

                 RECHARGE = -1.443535E-03
 
 SOLVING FOR HEAD 

 OUTPUT CONTROL FOR STRESS PERIOD  159   TIME STEP    1
    SAVE HEAD FOR ALL LAYERS

 HEAD WILL BE SAVED ON UNIT   51 AT END OF TIME STEP    1, STRESS PERIOD  159
1
  VOLUMETRIC BUDGET FOR ENTIRE MODEL AT END OF TIME STEP    1, STRESS PERIOD 159
  ------------------------------------------------------------------------------

     CUMULATIVE VOLUMES      L**3       RATES FOR THIS TIME STEP      L**3/T
     ------------------                 ------------------------

           IN:                                      IN:
           ---                                      ---
             STORAGE =         869.3558               STORAGE =          17.1737
       CONSTANT HEAD =           0.0000         CONSTANT HEAD =           0.0000
       RIVER LEAKAGE =           2.4547         RIVER LEAKAGE =           0.5449
            RECHARGE =        1335.9685              RECHARGE =           0.0000

            TOTAL IN =        2207.7788              TOTAL IN =          17.7186

          OUT:                                     OUT:
          ----                                     ----
             STORAGE =         511.1676               STORAGE =           0.0000
       CONSTANT HEAD =         533.1616         CONSTANT HEAD =           3.2833
       RIVER LEAKAGE =         763.1215         RIVER LEAKAGE =           0.0000
            RECHARGE =         400.3290              RECHARGE =          14.4354

           TOTAL OUT =        2207.7798             TOTAL OUT =          17.7186

            IN - OUT =      -9.7656E-04              IN - OUT =      -3.6240E-05

 PERCENT DISCREPANCY =          -0.00     PERCENT DISCREPANCY =          -0.00






         TIME SUMMARY AT END OF TIME STEP    1 IN STRESS PERIOD  159
                    SECONDS     MINUTES      HOURS       DAYS        YEARS
                    -----------------------------------------------------------
   TIME STEP LENGTH  86400.      1440.0      24.000      1.0000     2.73785E-03
 STRESS PERIOD TIME  86400.      1440.0      24.000      1.0000     2.73785E-03
         TOTAL TIME 1.37376E+07 2.28960E+05  3816.0      159.00     0.43532    
1
1
                            STRESS PERIOD NO.  160, LENGTH =   1.000000    
                            -----------------------------------------------

                              NUMBER OF TIME STEPS =     1

                               MULTIPLIER FOR DELT =     1.000

                            INITIAL TIME STEP SIZE =   1.000000    

 REUSING NON-PARAMETER RIVER REACHES FROM LAST STRESS PERIOD

      2 RIVER REACHES

                 RECHARGE =  6.443965E-04
 
 SOLVING FOR HEAD 

 OUTPUT CONTROL FOR STRESS PERIOD  160   TIME STEP    1
    SAVE HEAD FOR ALL LAYERS

 HEAD WILL BE SAVED ON UNIT   51 AT END OF TIME STEP    1, STRESS PERIOD  160
1
  VOLUMETRIC BUDGET FOR ENTIRE MODEL AT END OF TIME STEP    1, STRESS PERIOD 160
  ------------------------------------------------------------------------------

     CUMULATIVE VOLUMES      L**3       RATES FOR THIS TIME STEP      L**3/T
     ------------------                 ------------------------

           IN:                                      IN:
           ---                                      ---
             STORAGE =         869.7410               STORAGE =           0.3852
       CONSTANT HEAD =           0.0000         CONSTANT HEAD =           0.0000
       RIVER LEAKAGE =           2.5073         RIVER LEAKAGE =       5.2602E-02
            RECHARGE =        1342.4125              RECHARGE =           6.4440

            TOTAL IN =        2214.6606              TOTAL IN =           6.8818

          OUT:                                     OUT:
          ----                                     ----
             STORAGE =         514.7695               STORAGE =           3.6019
       CONSTANT HEAD =         536.4415         CONSTANT HEAD =           3.2799
       RIVER LEAKAGE =         763.1215         RIVER LEAKAGE =           0.0000
            RECHARGE =         400.3290              RECHARGE =           0.0000

           TOTAL OUT =        2214.6616             TOTAL OUT =           6.8818

            IN - OUT =      -9.7656E-04              IN - OUT =       2.8610E-06

 PERCENT DISCREPANCY =          -0.00     PERCENT DISCREPANCY =           0.00






         TIME SUMMARY AT END OF TIME STEP    1 IN STRESS PERIOD  160
                    SECONDS     MINUTES      HOURS       DAYS        YEARS
                    -----------------------------------------------------------
   TIME STEP LENGTH  86400.      1440.0      24.000      1.0000     2.73785E-03
 STRESS PERIOD TIME  86400.      1440.0      24.000      1.0000     2.73785E-03
         TOTAL TIME 1.38240E+07 2.30400E+05  3840.0      160.00     0.43806    
1
1
                            STRESS PERIOD NO.  161, LENGTH =   1.000000    
                            -----------------------------------------------

                              NUMBER OF TIME STEPS =     1

                               MULTIPLIER FOR DELT =     1.000

                            INITIAL TIME STEP SIZE =   1.000000    

 REUSING NON-PARAMETER RIVER REACHES FROM LAST STRESS PERIOD

      2 RIVER REACHES

                 RECHARGE = -3.021552E-04
 
 SOLVING FOR HEAD 

 OUTPUT CONTROL FOR STRESS PERIOD  161   TIME STEP    1
    SAVE HEAD FOR ALL LAYERS

 HEAD WILL BE SAVED ON UNIT   51 AT END OF TIME STEP    1, STRESS PERIOD  161
1
  VOLUMETRIC BUDGET FOR ENTIRE MODEL AT END OF TIME STEP    1, STRESS PERIOD 161
  ------------------------------------------------------------------------------

     CUMULATIVE VOLUMES      L**3       RATES FOR THIS TIME STEP      L**3/T
     ------------------                 ------------------------

           IN:                                      IN:
           ---                                      ---
             STORAGE =         875.9218               STORAGE =           6.1807
       CONSTANT HEAD =           0.0000         CONSTANT HEAD =           0.0000
       RIVER LEAKAGE =           2.6247         RIVER LEAKAGE =           0.1174
            RECHARGE =        1342.4125              RECHARGE =           0.0000

            TOTAL IN =        2220.9590              TOTAL IN =           6.2981

          OUT:                                     OUT:
          ----                                     ----
             STORAGE =         514.7695               STORAGE =           0.0000
       CONSTANT HEAD =         539.7179         CONSTANT HEAD =           3.2764
       RIVER LEAKAGE =         763.1215         RIVER LEAKAGE =           0.0000
            RECHARGE =         403.3505              RECHARGE =           3.0216

           TOTAL OUT =        2220.9595             TOTAL OUT =           6.2980

            IN - OUT =      -4.8828E-04              IN - OUT =       1.6499E-04

 PERCENT DISCREPANCY =          -0.00     PERCENT DISCREPANCY =           0.00






         TIME SUMMARY AT END OF TIME STEP    1 IN STRESS PERIOD  161
                    SECONDS     MINUTES      HOURS       DAYS        YEARS
                    -----------------------------------------------------------
   TIME STEP LENGTH  86400.      1440.0      24.000      1.0000     2.73785E-03
 STRESS PERIOD TIME  86400.      1440.0      24.000      1.0000     2.73785E-03
         TOTAL TIME 1.39104E+07 2.31840E+05  3864.0      161.00     0.44079    
1
1
                            STRESS PERIOD NO.  162, LENGTH =   1.000000    
                            -----------------------------------------------

                              NUMBER OF TIME STEPS =     1

                               MULTIPLIER FOR DELT =     1.000

                            INITIAL TIME STEP SIZE =   1.000000    

 REUSING NON-PARAMETER RIVER REACHES FROM LAST STRESS PERIOD

      2 RIVER REACHES

                 RECHARGE = -6.926724E-04
 
 SOLVING FOR HEAD 

 OUTPUT CONTROL FOR STRESS PERIOD  162   TIME STEP    1
    SAVE HEAD FOR ALL LAYERS

 HEAD WILL BE SAVED ON UNIT   51 AT END OF TIME STEP    1, STRESS PERIOD  162
1
  VOLUMETRIC BUDGET FOR ENTIRE MODEL AT END OF TIME STEP    1, STRESS PERIOD 162
  ------------------------------------------------------------------------------

     CUMULATIVE VOLUMES      L**3       RATES FOR THIS TIME STEP      L**3/T
     ------------------                 ------------------------

           IN:                                      IN:
           ---                                      ---
             STORAGE =         885.8494               STORAGE =           9.9276
       CONSTANT HEAD =           0.0000         CONSTANT HEAD =           0.0000
       RIVER LEAKAGE =           2.8964         RIVER LEAKAGE =           0.2717
            RECHARGE =        1342.4125              RECHARGE =           0.0000

            TOTAL IN =        2231.1582              TOTAL IN =          10.1993

          OUT:                                     OUT:
          ----                                     ----
             STORAGE =         514.7695               STORAGE =           0.0000
       CONSTANT HEAD =         542.9907         CONSTANT HEAD =           3.2728
       RIVER LEAKAGE =         763.1215         RIVER LEAKAGE =           0.0000
            RECHARGE =         410.2773              RECHARGE =           6.9267

           TOTAL OUT =        2231.1589             TOTAL OUT =          10.1995

            IN - OUT =      -7.3242E-04              IN - OUT =      -1.7643E-04

 PERCENT DISCREPANCY =          -0.00     PERCENT DISCREPANCY =          -0.00






         TIME SUMMARY AT END OF TIME STEP    1 IN STRESS PERIOD  162
                    SECONDS     MINUTES      HOURS       DAYS        YEARS
                    -----------------------------------------------------------
   TIME STEP LENGTH  86400.      1440.0      24.000      1.0000     2.73785E-03
 STRESS PERIOD TIME  86400.      1440.0      24.000      1.0000     2.73785E-03
         TOTAL TIME 1.39968E+07 2.33280E+05  3888.0      162.00     0.44353    
1
1
                            STRESS PERIOD NO.  163, LENGTH =   1.000000    
                            -----------------------------------------------

                              NUMBER OF TIME STEPS =     1

                               MULTIPLIER FOR DELT =     1.000

                            INITIAL TIME STEP SIZE =   1.000000    

 REUSING NON-PARAMETER RIVER REACHES FROM LAST STRESS PERIOD

      2 RIVER REACHES

                 RECHARGE = -1.195259E-03
 
 SOLVING FOR HEAD 

 OUTPUT CONTROL FOR STRESS PERIOD  163   TIME STEP    1
    SAVE HEAD FOR ALL LAYERS

 HEAD WILL BE SAVED ON UNIT   51 AT END OF TIME STEP    1, STRESS PERIOD  163
1
  VOLUMETRIC BUDGET FOR ENTIRE MODEL AT END OF TIME STEP    1, STRESS PERIOD 163
  ------------------------------------------------------------------------------

     CUMULATIVE VOLUMES      L**3       RATES FOR THIS TIME STEP      L**3/T
     ------------------                 ------------------------

           IN:                                      IN:
           ---                                      ---
             STORAGE =         900.5273               STORAGE =          14.6780
       CONSTANT HEAD =           0.0000         CONSTANT HEAD =           0.0000
       RIVER LEAKAGE =           3.4398         RIVER LEAKAGE =           0.5434
            RECHARGE =        1342.4125              RECHARGE =           0.0000

            TOTAL IN =        2246.3796              TOTAL IN =          15.2214

          OUT:                                     OUT:
          ----                                     ----
             STORAGE =         514.7695               STORAGE =           0.0000
       CONSTANT HEAD =         546.2596         CONSTANT HEAD =           3.2689
       RIVER LEAKAGE =         763.1215         RIVER LEAKAGE =           0.0000
            RECHARGE =         422.2298              RECHARGE =          11.9526

           TOTAL OUT =        2246.3804             TOTAL OUT =          15.2215

            IN - OUT =      -7.3242E-04              IN - OUT =      -1.5068E-04

 PERCENT DISCREPANCY =          -0.00     PERCENT DISCREPANCY =          -0.00






         TIME SUMMARY AT END OF TIME STEP    1 IN STRESS PERIOD  163
                    SECONDS     MINUTES      HOURS       DAYS        YEARS
                    -----------------------------------------------------------
   TIME STEP LENGTH  86400.      1440.0      24.000      1.0000     2.73785E-03
 STRESS PERIOD TIME  86400.      1440.0      24.000      1.0000     2.73785E-03
         TOTAL TIME 1.40832E+07 2.34720E+05  3912.0      163.00     0.44627    
1
1
                            STRESS PERIOD NO.  164, LENGTH =   1.000000    
                            -----------------------------------------------

                              NUMBER OF TIME STEPS =     1

                               MULTIPLIER FOR DELT =     1.000

                            INITIAL TIME STEP SIZE =   1.000000    

 REUSING NON-PARAMETER RIVER REACHES FROM LAST STRESS PERIOD

      2 RIVER REACHES

                 RECHARGE = -1.052586E-03
 
 SOLVING FOR HEAD 

 OUTPUT CONTROL FOR STRESS PERIOD  164   TIME STEP    1
    SAVE HEAD FOR ALL LAYERS

 HEAD WILL BE SAVED ON UNIT   51 AT END OF TIME STEP    1, STRESS PERIOD  164
1
  VOLUMETRIC BUDGET FOR ENTIRE MODEL AT END OF TIME STEP    1, STRESS PERIOD 164
  ------------------------------------------------------------------------------

     CUMULATIVE VOLUMES      L**3       RATES FOR THIS TIME STEP      L**3/T
     ------------------                 ------------------------

           IN:                                      IN:
           ---                                      ---
             STORAGE =         913.6381               STORAGE =          13.1108
       CONSTANT HEAD =           0.0000         CONSTANT HEAD =           0.0000
       RIVER LEAKAGE =           4.1197         RIVER LEAKAGE =           0.6799
            RECHARGE =        1342.4125              RECHARGE =           0.0000

            TOTAL IN =        2260.1704              TOTAL IN =          13.7907

          OUT:                                     OUT:
          ----                                     ----
             STORAGE =         514.7695               STORAGE =           0.0000
       CONSTANT HEAD =         549.5246         CONSTANT HEAD =           3.2650
       RIVER LEAKAGE =         763.1215         RIVER LEAKAGE =           0.0000
            RECHARGE =         432.7557              RECHARGE =          10.5259

           TOTAL OUT =        2260.1711             TOTAL OUT =          13.7908

            IN - OUT =      -7.3242E-04              IN - OUT =      -1.3924E-04

 PERCENT DISCREPANCY =          -0.00     PERCENT DISCREPANCY =          -0.00






         TIME SUMMARY AT END OF TIME STEP    1 IN STRESS PERIOD  164
                    SECONDS     MINUTES      HOURS       DAYS        YEARS
                    -----------------------------------------------------------
   TIME STEP LENGTH  86400.      1440.0      24.000      1.0000     2.73785E-03
 STRESS PERIOD TIME  86400.      1440.0      24.000      1.0000     2.73785E-03
         TOTAL TIME 1.41696E+07 2.36160E+05  3936.0      164.00     0.44901    
1
1
                            STRESS PERIOD NO.  165, LENGTH =   1.000000    
                            -----------------------------------------------

                              NUMBER OF TIME STEPS =     1

                               MULTIPLIER FOR DELT =     1.000

                            INITIAL TIME STEP SIZE =   1.000000    

 REUSING NON-PARAMETER RIVER REACHES FROM LAST STRESS PERIOD

      2 RIVER REACHES

                 RECHARGE = -1.206034E-03
 
 SOLVING FOR HEAD 

 OUTPUT CONTROL FOR STRESS PERIOD  165   TIME STEP    1
    SAVE HEAD FOR ALL LAYERS

 HEAD WILL BE SAVED ON UNIT   51 AT END OF TIME STEP    1, STRESS PERIOD  165
1
  VOLUMETRIC BUDGET FOR ENTIRE MODEL AT END OF TIME STEP    1, STRESS PERIOD 165
  ------------------------------------------------------------------------------

     CUMULATIVE VOLUMES      L**3       RATES FOR THIS TIME STEP      L**3/T
     ------------------                 ------------------------

           IN:                                      IN:
           ---                                      ---
             STORAGE =         928.1044               STORAGE =          14.4662
       CONSTANT HEAD =           0.0000         CONSTANT HEAD =           0.0000
       RIVER LEAKAGE =           4.9746         RIVER LEAKAGE =           0.8549
            RECHARGE =        1342.4125              RECHARGE =           0.0000

            TOTAL IN =        2275.4915              TOTAL IN =          15.3211

          OUT:                                     OUT:
          ----                                     ----
             STORAGE =         514.7695               STORAGE =           0.0000
       CONSTANT HEAD =         552.7855         CONSTANT HEAD =           3.2609
       RIVER LEAKAGE =         763.1215         RIVER LEAKAGE =           0.0000
            RECHARGE =         444.8160              RECHARGE =          12.0603

           TOTAL OUT =        2275.4924             TOTAL OUT =          15.3213

            IN - OUT =      -9.7656E-04              IN - OUT =      -1.9169E-04

 PERCENT DISCREPANCY =          -0.00     PERCENT DISCREPANCY =          -0.00






         TIME SUMMARY AT END OF TIME STEP    1 IN STRESS PERIOD  165
                    SECONDS     MINUTES      HOURS       DAYS        YEARS
                    -----------------------------------------------------------
   TIME STEP LENGTH  86400.      1440.0      24.000      1.0000     2.73785E-03
 STRESS PERIOD TIME  86400.      1440.0      24.000      1.0000     2.73785E-03
         TOTAL TIME 1.42560E+07 2.37600E+05  3960.0      165.00     0.45175    
1
1
                            STRESS PERIOD NO.  166, LENGTH =   1.000000    
                            -----------------------------------------------

                              NUMBER OF TIME STEPS =     1

                               MULTIPLIER FOR DELT =     1.000

                            INITIAL TIME STEP SIZE =   1.000000    

 REUSING NON-PARAMETER RIVER REACHES FROM LAST STRESS PERIOD

      2 RIVER REACHES

                 RECHARGE = -1.346552E-03
 
 SOLVING FOR HEAD 

 OUTPUT CONTROL FOR STRESS PERIOD  166   TIME STEP    1
    SAVE HEAD FOR ALL LAYERS

 HEAD WILL BE SAVED ON UNIT   51 AT END OF TIME STEP    1, STRESS PERIOD  166
1
  VOLUMETRIC BUDGET FOR ENTIRE MODEL AT END OF TIME STEP    1, STRESS PERIOD 166
  ------------------------------------------------------------------------------

     CUMULATIVE VOLUMES      L**3       RATES FOR THIS TIME STEP      L**3/T
     ------------------                 ------------------------

           IN:                                      IN:
           ---                                      ---
             STORAGE =         943.7795               STORAGE =          15.6752
       CONSTANT HEAD =           0.0000         CONSTANT HEAD =           0.0000
       RIVER LEAKAGE =           6.0215         RIVER LEAKAGE =           1.0470
            RECHARGE =        1342.4125              RECHARGE =           0.0000

            TOTAL IN =        2292.2136              TOTAL IN =          16.7221

          OUT:                                     OUT:
          ----                                     ----
             STORAGE =         514.7695               STORAGE =           0.0000
       CONSTANT HEAD =         556.0422         CONSTANT HEAD =           3.2567
       RIVER LEAKAGE =         763.1215         RIVER LEAKAGE =           0.0000
            RECHARGE =         458.2815              RECHARGE =          13.4655

           TOTAL OUT =        2292.2148             TOTAL OUT =          16.7223

            IN - OUT =      -1.2207E-03              IN - OUT =      -1.2589E-04

 PERCENT DISCREPANCY =          -0.00     PERCENT DISCREPANCY =          -0.00






         TIME SUMMARY AT END OF TIME STEP    1 IN STRESS PERIOD  166
                    SECONDS     MINUTES      HOURS       DAYS        YEARS
                    -----------------------------------------------------------
   TIME STEP LENGTH  86400.      1440.0      24.000      1.0000     2.73785E-03
 STRESS PERIOD TIME  86400.      1440.0      24.000      1.0000     2.73785E-03
         TOTAL TIME 1.43424E+07 2.39040E+05  3984.0      166.00     0.45448    
1
1
                            STRESS PERIOD NO.  167, LENGTH =   1.000000    
                            -----------------------------------------------

                              NUMBER OF TIME STEPS =     1

                               MULTIPLIER FOR DELT =     1.000

                            INITIAL TIME STEP SIZE =   1.000000    

 REUSING NON-PARAMETER RIVER REACHES FROM LAST STRESS PERIOD

      2 RIVER REACHES

                 RECHARGE = -2.154310E-03
 
 SOLVING FOR HEAD 

 OUTPUT CONTROL FOR STRESS PERIOD  167   TIME STEP    1
    SAVE HEAD FOR ALL LAYERS

 HEAD WILL BE SAVED ON UNIT   51 AT END OF TIME STEP    1, STRESS PERIOD  167
1
  VOLUMETRIC BUDGET FOR ENTIRE MODEL AT END OF TIME STEP    1, STRESS PERIOD 167
  ------------------------------------------------------------------------------

     CUMULATIVE VOLUMES      L**3       RATES FOR THIS TIME STEP      L**3/T
     ------------------                 ------------------------

           IN:                                      IN:
           ---                                      ---
             STORAGE =         967.0887               STORAGE =          23.3092
       CONSTANT HEAD =           0.0000         CONSTANT HEAD =           0.0000
       RIVER LEAKAGE =           7.5076         RIVER LEAKAGE =           1.4860
            RECHARGE =        1342.4125              RECHARGE =           0.0000

            TOTAL IN =        2317.0088              TOTAL IN =          24.7952

          OUT:                                     OUT:
          ----                                     ----
             STORAGE =         514.7695               STORAGE =           0.0000
       CONSTANT HEAD =         559.2944         CONSTANT HEAD =           3.2522
       RIVER LEAKAGE =         763.1215         RIVER LEAKAGE =           0.0000
            RECHARGE =         479.8246              RECHARGE =          21.5431

           TOTAL OUT =        2317.0100             TOTAL OUT =          24.7953

            IN - OUT =      -1.2207E-03              IN - OUT =      -8.0109E-05

 PERCENT DISCREPANCY =          -0.00     PERCENT DISCREPANCY =          -0.00






         TIME SUMMARY AT END OF TIME STEP    1 IN STRESS PERIOD  167
                    SECONDS     MINUTES      HOURS       DAYS        YEARS
                    -----------------------------------------------------------
   TIME STEP LENGTH  86400.      1440.0      24.000      1.0000     2.73785E-03
 STRESS PERIOD TIME  86400.      1440.0      24.000      1.0000     2.73785E-03
         TOTAL TIME 1.44288E+07 2.40480E+05  4008.0      167.00     0.45722    
1
1
                            STRESS PERIOD NO.  168, LENGTH =   1.000000    
                            -----------------------------------------------

                              NUMBER OF TIME STEPS =     1

                               MULTIPLIER FOR DELT =     1.000

                            INITIAL TIME STEP SIZE =   1.000000    

 REUSING NON-PARAMETER RIVER REACHES FROM LAST STRESS PERIOD

      2 RIVER REACHES

                 RECHARGE = -2.422414E-04
 
 SOLVING FOR HEAD 

 OUTPUT CONTROL FOR STRESS PERIOD  168   TIME STEP    1
    SAVE HEAD FOR ALL LAYERS

 HEAD WILL BE SAVED ON UNIT   51 AT END OF TIME STEP    1, STRESS PERIOD  168
1
  VOLUMETRIC BUDGET FOR ENTIRE MODEL AT END OF TIME STEP    1, STRESS PERIOD 168
  ------------------------------------------------------------------------------

     CUMULATIVE VOLUMES      L**3       RATES FOR THIS TIME STEP      L**3/T
     ------------------                 ------------------------

           IN:                                      IN:
           ---                                      ---
             STORAGE =         972.3085               STORAGE =           5.2198
       CONSTANT HEAD =           0.0000         CONSTANT HEAD =           0.0000
       RIVER LEAKAGE =           8.6439         RIVER LEAKAGE =           1.1364
            RECHARGE =        1342.4125              RECHARGE =           0.0000

            TOTAL IN =        2323.3650              TOTAL IN =           6.3561

          OUT:                                     OUT:
          ----                                     ----
             STORAGE =         515.4553               STORAGE =           0.6858
       CONSTANT HEAD =         562.5424         CONSTANT HEAD =           3.2480
       RIVER LEAKAGE =         763.1215         RIVER LEAKAGE =           0.0000
            RECHARGE =         482.2470              RECHARGE =           2.4224

           TOTAL OUT =        2323.3662             TOTAL OUT =           6.3563

            IN - OUT =      -1.2207E-03              IN - OUT =      -1.2875E-04

 PERCENT DISCREPANCY =          -0.00     PERCENT DISCREPANCY =          -0.00






         TIME SUMMARY AT END OF TIME STEP    1 IN STRESS PERIOD  168
                    SECONDS     MINUTES      HOURS       DAYS        YEARS
                    -----------------------------------------------------------
   TIME STEP LENGTH  86400.      1440.0      24.000      1.0000     2.73785E-03
 STRESS PERIOD TIME  86400.      1440.0      24.000      1.0000     2.73785E-03
         TOTAL TIME 1.45152E+07 2.41920E+05  4032.0      168.00     0.45996    
1
1
                            STRESS PERIOD NO.  169, LENGTH =   1.000000    
                            -----------------------------------------------

                              NUMBER OF TIME STEPS =     1

                               MULTIPLIER FOR DELT =     1.000

                            INITIAL TIME STEP SIZE =   1.000000    

 REUSING NON-PARAMETER RIVER REACHES FROM LAST STRESS PERIOD

      2 RIVER REACHES

                 RECHARGE = -7.599138E-04
 
 SOLVING FOR HEAD 

 OUTPUT CONTROL FOR STRESS PERIOD  169   TIME STEP    1
    SAVE HEAD FOR ALL LAYERS

 HEAD WILL BE SAVED ON UNIT   51 AT END OF TIME STEP    1, STRESS PERIOD  169
1
  VOLUMETRIC BUDGET FOR ENTIRE MODEL AT END OF TIME STEP    1, STRESS PERIOD 169
  ------------------------------------------------------------------------------

     CUMULATIVE VOLUMES      L**3       RATES FOR THIS TIME STEP      L**3/T
     ------------------                 ------------------------

           IN:                                      IN:
           ---                                      ---
             STORAGE =         981.9841               STORAGE =           9.6755
       CONSTANT HEAD =           0.0000         CONSTANT HEAD =           0.0000
       RIVER LEAKAGE =           9.8116         RIVER LEAKAGE =           1.1677
            RECHARGE =        1342.4125              RECHARGE =           0.0000

            TOTAL IN =        2334.2083              TOTAL IN =          10.8432

          OUT:                                     OUT:
          ----                                     ----
             STORAGE =         515.4553               STORAGE =           0.0000
       CONSTANT HEAD =         565.7863         CONSTANT HEAD =           3.2439
       RIVER LEAKAGE =         763.1215         RIVER LEAKAGE =           0.0000
            RECHARGE =         489.8462              RECHARGE =           7.5991

           TOTAL OUT =        2334.2092             TOTAL OUT =          10.8430

            IN - OUT =      -9.7656E-04              IN - OUT =       2.2411E-04

 PERCENT DISCREPANCY =          -0.00     PERCENT DISCREPANCY =           0.00






         TIME SUMMARY AT END OF TIME STEP    1 IN STRESS PERIOD  169
                    SECONDS     MINUTES      HOURS       DAYS        YEARS
                    -----------------------------------------------------------
   TIME STEP LENGTH  86400.      1440.0      24.000      1.0000     2.73785E-03
 STRESS PERIOD TIME  86400.      1440.0      24.000      1.0000     2.73785E-03
         TOTAL TIME 1.46016E+07 2.43360E+05  4056.0      169.00     0.46270    
1
1
                            STRESS PERIOD NO.  170, LENGTH =   1.000000    
                            -----------------------------------------------

                              NUMBER OF TIME STEPS =     1

                               MULTIPLIER FOR DELT =     1.000

                            INITIAL TIME STEP SIZE =   1.000000    

 REUSING NON-PARAMETER RIVER REACHES FROM LAST STRESS PERIOD

      2 RIVER REACHES

                 RECHARGE = -6.892242E-04
 
 SOLVING FOR HEAD 

 OUTPUT CONTROL FOR STRESS PERIOD  170   TIME STEP    1
    SAVE HEAD FOR ALL LAYERS

 HEAD WILL BE SAVED ON UNIT   51 AT END OF TIME STEP    1, STRESS PERIOD  170
1
  VOLUMETRIC BUDGET FOR ENTIRE MODEL AT END OF TIME STEP    1, STRESS PERIOD 170
  ------------------------------------------------------------------------------

     CUMULATIVE VOLUMES      L**3       RATES FOR THIS TIME STEP      L**3/T
     ------------------                 ------------------------

           IN:                                      IN:
           ---                                      ---
             STORAGE =         990.9453               STORAGE =           8.9612
       CONSTANT HEAD =           0.0000         CONSTANT HEAD =           0.0000
       RIVER LEAKAGE =          10.9823         RIVER LEAKAGE =           1.1707
            RECHARGE =        1342.4125              RECHARGE =           0.0000

            TOTAL IN =        2344.3401              TOTAL IN =          10.1319

          OUT:                                     OUT:
          ----                                     ----
             STORAGE =         515.4553               STORAGE =           0.0000
       CONSTANT HEAD =         569.0261         CONSTANT HEAD =           3.2397
       RIVER LEAKAGE =         763.1215         RIVER LEAKAGE =           0.0000
            RECHARGE =         496.7384              RECHARGE =           6.8922

           TOTAL OUT =        2344.3413             TOTAL OUT =          10.1320

            IN - OUT =      -1.2207E-03              IN - OUT =      -4.3869E-05

 PERCENT DISCREPANCY =          -0.00     PERCENT DISCREPANCY =          -0.00






         TIME SUMMARY AT END OF TIME STEP    1 IN STRESS PERIOD  170
                    SECONDS     MINUTES      HOURS       DAYS        YEARS
                    -----------------------------------------------------------
   TIME STEP LENGTH  86400.      1440.0      24.000      1.0000     2.73785E-03
 STRESS PERIOD TIME  86400.      1440.0      24.000      1.0000     2.73785E-03
         TOTAL TIME 1.46880E+07 2.44800E+05  4080.0      170.00     0.46543    
1
1
                            STRESS PERIOD NO.  171, LENGTH =   1.000000    
                            -----------------------------------------------

                              NUMBER OF TIME STEPS =     1

                               MULTIPLIER FOR DELT =     1.000

                            INITIAL TIME STEP SIZE =   1.000000    

 REUSING NON-PARAMETER RIVER REACHES FROM LAST STRESS PERIOD

      2 RIVER REACHES

                 RECHARGE = -9.422414E-04
 
 SOLVING FOR HEAD 

 OUTPUT CONTROL FOR STRESS PERIOD  171   TIME STEP    1
    SAVE HEAD FOR ALL LAYERS

 HEAD WILL BE SAVED ON UNIT   51 AT END OF TIME STEP    1, STRESS PERIOD  171
1
  VOLUMETRIC BUDGET FOR ENTIRE MODEL AT END OF TIME STEP    1, STRESS PERIOD 171
  ------------------------------------------------------------------------------

     CUMULATIVE VOLUMES      L**3       RATES FOR THIS TIME STEP      L**3/T
     ------------------                 ------------------------

           IN:                                      IN:
           ---                                      ---
             STORAGE =        1002.3267               STORAGE =          11.3814
       CONSTANT HEAD =           0.0000         CONSTANT HEAD =           0.0000
       RIVER LEAKAGE =          12.2587         RIVER LEAKAGE =           1.2764
            RECHARGE =        1342.4125              RECHARGE =           0.0000

            TOTAL IN =        2356.9978              TOTAL IN =          12.6578

          OUT:                                     OUT:
          ----                                     ----
             STORAGE =         515.4553               STORAGE =           0.0000
       CONSTANT HEAD =         572.2615         CONSTANT HEAD =           3.2355
       RIVER LEAKAGE =         763.1215         RIVER LEAKAGE =           0.0000
            RECHARGE =         506.1609              RECHARGE =           9.4224

           TOTAL OUT =        2356.9993             TOTAL OUT =          12.6579

            IN - OUT =      -1.4648E-03              IN - OUT =      -1.0490E-04

 PERCENT DISCREPANCY =          -0.00     PERCENT DISCREPANCY =          -0.00






         TIME SUMMARY AT END OF TIME STEP    1 IN STRESS PERIOD  171
                    SECONDS     MINUTES      HOURS       DAYS        YEARS
                    -----------------------------------------------------------
   TIME STEP LENGTH  86400.      1440.0      24.000      1.0000     2.73785E-03
 STRESS PERIOD TIME  86400.      1440.0      24.000      1.0000     2.73785E-03
         TOTAL TIME 1.47744E+07 2.46240E+05  4104.0      171.00     0.46817    
1
1
                            STRESS PERIOD NO.  172, LENGTH =   1.000000    
                            -----------------------------------------------

                              NUMBER OF TIME STEPS =     1

                               MULTIPLIER FOR DELT =     1.000

                            INITIAL TIME STEP SIZE =   1.000000    

 REUSING NON-PARAMETER RIVER REACHES FROM LAST STRESS PERIOD

      2 RIVER REACHES

                 RECHARGE = -3.116379E-04
 
 SOLVING FOR HEAD 

 OUTPUT CONTROL FOR STRESS PERIOD  172   TIME STEP    1
    SAVE HEAD FOR ALL LAYERS

 HEAD WILL BE SAVED ON UNIT   51 AT END OF TIME STEP    1, STRESS PERIOD  172
1
  VOLUMETRIC BUDGET FOR ENTIRE MODEL AT END OF TIME STEP    1, STRESS PERIOD 172
  ------------------------------------------------------------------------------

     CUMULATIVE VOLUMES      L**3       RATES FOR THIS TIME STEP      L**3/T
     ------------------                 ------------------------

           IN:                                      IN:
           ---                                      ---
             STORAGE =        1007.8513               STORAGE =           5.5247
       CONSTANT HEAD =           0.0000         CONSTANT HEAD =           0.0000
       RIVER LEAKAGE =          13.3956         RIVER LEAKAGE =           1.1369
            RECHARGE =        1342.4125              RECHARGE =           0.0000

            TOTAL IN =        2363.6594              TOTAL IN =           6.6615

          OUT:                                     OUT:
          ----                                     ----
             STORAGE =         515.7687               STORAGE =           0.3135
       CONSTANT HEAD =         575.4930         CONSTANT HEAD =           3.2314
       RIVER LEAKAGE =         763.1215         RIVER LEAKAGE =           0.0000
            RECHARGE =         509.2773              RECHARGE =           3.1164

           TOTAL OUT =        2363.6606             TOTAL OUT =           6.6613

            IN - OUT =      -1.2207E-03              IN - OUT =       2.3699E-04

 PERCENT DISCREPANCY =          -0.00     PERCENT DISCREPANCY =           0.00






         TIME SUMMARY AT END OF TIME STEP    1 IN STRESS PERIOD  172
                    SECONDS     MINUTES      HOURS       DAYS        YEARS
                    -----------------------------------------------------------
   TIME STEP LENGTH  86400.      1440.0      24.000      1.0000     2.73785E-03
 STRESS PERIOD TIME  86400.      1440.0      24.000      1.0000     2.73785E-03
         TOTAL TIME 1.48608E+07 2.47680E+05  4128.0      172.00     0.47091    
1
1
                            STRESS PERIOD NO.  173, LENGTH =   1.000000    
                            -----------------------------------------------

                              NUMBER OF TIME STEPS =     1

                               MULTIPLIER FOR DELT =     1.000

                            INITIAL TIME STEP SIZE =   1.000000    

 REUSING NON-PARAMETER RIVER REACHES FROM LAST STRESS PERIOD

      2 RIVER REACHES

                 RECHARGE = -6.844827E-04
 
 SOLVING FOR HEAD 

 OUTPUT CONTROL FOR STRESS PERIOD  173   TIME STEP    1
    SAVE HEAD FOR ALL LAYERS

 HEAD WILL BE SAVED ON UNIT   51 AT END OF TIME STEP    1, STRESS PERIOD  173
1
  VOLUMETRIC BUDGET FOR ENTIRE MODEL AT END OF TIME STEP    1, STRESS PERIOD 173
  ------------------------------------------------------------------------------

     CUMULATIVE VOLUMES      L**3       RATES FOR THIS TIME STEP      L**3/T
     ------------------                 ------------------------

           IN:                                      IN:
           ---                                      ---
             STORAGE =        1016.7214               STORAGE =           8.8701
       CONSTANT HEAD =           0.0000         CONSTANT HEAD =           0.0000
       RIVER LEAKAGE =          14.5978         RIVER LEAKAGE =           1.2022
            RECHARGE =        1342.4125              RECHARGE =           0.0000

            TOTAL IN =        2373.7317              TOTAL IN =          10.0723

          OUT:                                     OUT:
          ----                                     ----
             STORAGE =         515.7687               STORAGE =           0.0000
       CONSTANT HEAD =         578.7203         CONSTANT HEAD =           3.2273
       RIVER LEAKAGE =         763.1215         RIVER LEAKAGE =           0.0000
            RECHARGE =         516.1221              RECHARGE =           6.8448

           TOTAL OUT =        2373.7327             TOTAL OUT =          10.0721

            IN - OUT =      -9.7656E-04              IN - OUT =       1.5926E-04

 PERCENT DISCREPANCY =          -0.00     PERCENT DISCREPANCY =           0.00






         TIME SUMMARY AT END OF TIME STEP    1 IN STRESS PERIOD  173
                    SECONDS     MINUTES      HOURS       DAYS        YEARS
                    -----------------------------------------------------------
   TIME STEP LENGTH  86400.      1440.0      24.000      1.0000     2.73785E-03
 STRESS PERIOD TIME  86400.      1440.0      24.000      1.0000     2.73785E-03
         TOTAL TIME 1.49472E+07 2.49120E+05  4152.0      173.00     0.47365    
1
1
                            STRESS PERIOD NO.  174, LENGTH =   1.000000    
                            -----------------------------------------------

                              NUMBER OF TIME STEPS =     1

                               MULTIPLIER FOR DELT =     1.000

                            INITIAL TIME STEP SIZE =   1.000000    

 REUSING NON-PARAMETER RIVER REACHES FROM LAST STRESS PERIOD

      2 RIVER REACHES

                 RECHARGE = -2.689655E-04
 
 SOLVING FOR HEAD 

 OUTPUT CONTROL FOR STRESS PERIOD  174   TIME STEP    1
    SAVE HEAD FOR ALL LAYERS

 HEAD WILL BE SAVED ON UNIT   51 AT END OF TIME STEP    1, STRESS PERIOD  174
1
  VOLUMETRIC BUDGET FOR ENTIRE MODEL AT END OF TIME STEP    1, STRESS PERIOD 174
  ------------------------------------------------------------------------------

     CUMULATIVE VOLUMES      L**3       RATES FOR THIS TIME STEP      L**3/T
     ------------------                 ------------------------

           IN:                                      IN:
           ---                                      ---
             STORAGE =        1021.8046               STORAGE =           5.0831
       CONSTANT HEAD =           0.0000         CONSTANT HEAD =           0.0000
       RIVER LEAKAGE =          15.6989         RIVER LEAKAGE =           1.1012
            RECHARGE =        1342.4125              RECHARGE =           0.0000

            TOTAL IN =        2379.9160              TOTAL IN =           6.1843

          OUT:                                     OUT:
          ----                                     ----
             STORAGE =         516.0399               STORAGE =           0.2712
       CONSTANT HEAD =         581.9436         CONSTANT HEAD =           3.2233
       RIVER LEAKAGE =         763.1215         RIVER LEAKAGE =           0.0000
            RECHARGE =         518.8117              RECHARGE =           2.6897

           TOTAL OUT =        2379.9167             TOTAL OUT =           6.1841

            IN - OUT =      -7.3242E-04              IN - OUT =       1.5736E-04

 PERCENT DISCREPANCY =          -0.00     PERCENT DISCREPANCY =           0.00






         TIME SUMMARY AT END OF TIME STEP    1 IN STRESS PERIOD  174
                    SECONDS     MINUTES      HOURS       DAYS        YEARS
                    -----------------------------------------------------------
   TIME STEP LENGTH  86400.      1440.0      24.000      1.0000     2.73785E-03
 STRESS PERIOD TIME  86400.      1440.0      24.000      1.0000     2.73785E-03
         TOTAL TIME 1.50336E+07 2.50560E+05  4176.0      174.00     0.47639    
1
1
                            STRESS PERIOD NO.  175, LENGTH =   1.000000    
                            -----------------------------------------------

                              NUMBER OF TIME STEPS =     1

                               MULTIPLIER FOR DELT =     1.000

                            INITIAL TIME STEP SIZE =   1.000000    

 REUSING NON-PARAMETER RIVER REACHES FROM LAST STRESS PERIOD

      2 RIVER REACHES

                 RECHARGE = -8.064655E-04
 
 SOLVING FOR HEAD 

 OUTPUT CONTROL FOR STRESS PERIOD  175   TIME STEP    1
    SAVE HEAD FOR ALL LAYERS

 HEAD WILL BE SAVED ON UNIT   51 AT END OF TIME STEP    1, STRESS PERIOD  175
1
  VOLUMETRIC BUDGET FOR ENTIRE MODEL AT END OF TIME STEP    1, STRESS PERIOD 175
  ------------------------------------------------------------------------------

     CUMULATIVE VOLUMES      L**3       RATES FOR THIS TIME STEP      L**3/T
     ------------------                 ------------------------

           IN:                                      IN:
           ---                                      ---
             STORAGE =        1031.8505               STORAGE =          10.0459
       CONSTANT HEAD =           0.0000         CONSTANT HEAD =           0.0000
       RIVER LEAKAGE =          16.9370         RIVER LEAKAGE =           1.2381
            RECHARGE =        1342.4125              RECHARGE =           0.0000

            TOTAL IN =        2391.2000              TOTAL IN =          11.2839

          OUT:                                     OUT:
          ----                                     ----
             STORAGE =         516.0399               STORAGE =           0.0000
       CONSTANT HEAD =         585.1628         CONSTANT HEAD =           3.2192
       RIVER LEAKAGE =         763.1215         RIVER LEAKAGE =           0.0000
            RECHARGE =         526.8763              RECHARGE =           8.0647

           TOTAL OUT =        2391.2007             TOTAL OUT =          11.2838

            IN - OUT =      -7.3242E-04              IN - OUT =       1.0395E-04

 PERCENT DISCREPANCY =          -0.00     PERCENT DISCREPANCY =           0.00






         TIME SUMMARY AT END OF TIME STEP    1 IN STRESS PERIOD  175
                    SECONDS     MINUTES      HOURS       DAYS        YEARS
                    -----------------------------------------------------------
   TIME STEP LENGTH  86400.      1440.0      24.000      1.0000     2.73785E-03
 STRESS PERIOD TIME  86400.      1440.0      24.000      1.0000     2.73785E-03
         TOTAL TIME 1.51200E+07 2.52000E+05  4200.0      175.00     0.47912    
1
1
                            STRESS PERIOD NO.  176, LENGTH =   1.000000    
                            -----------------------------------------------

                              NUMBER OF TIME STEPS =     1

                               MULTIPLIER FOR DELT =     1.000

                            INITIAL TIME STEP SIZE =   1.000000    

 REUSING NON-PARAMETER RIVER REACHES FROM LAST STRESS PERIOD

      2 RIVER REACHES

                 RECHARGE = -1.616379E-04
 
 SOLVING FOR HEAD 

 OUTPUT CONTROL FOR STRESS PERIOD  176   TIME STEP    1
    SAVE HEAD FOR ALL LAYERS

 HEAD WILL BE SAVED ON UNIT   51 AT END OF TIME STEP    1, STRESS PERIOD  176
1
  VOLUMETRIC BUDGET FOR ENTIRE MODEL AT END OF TIME STEP    1, STRESS PERIOD 176
  ------------------------------------------------------------------------------

     CUMULATIVE VOLUMES      L**3       RATES FOR THIS TIME STEP      L**3/T
     ------------------                 ------------------------

           IN:                                      IN:
           ---                                      ---
             STORAGE =        1036.0161               STORAGE =           4.1657
       CONSTANT HEAD =           0.0000         CONSTANT HEAD =           0.0000
       RIVER LEAKAGE =          18.0364         RIVER LEAKAGE =           1.0995
            RECHARGE =        1342.4125              RECHARGE =           0.0000

            TOTAL IN =        2396.4648              TOTAL IN =           5.2651

          OUT:                                     OUT:
          ----                                     ----
             STORAGE =         516.4734               STORAGE =           0.4334
       CONSTANT HEAD =         588.3780         CONSTANT HEAD =           3.2152
       RIVER LEAKAGE =         763.1215         RIVER LEAKAGE =           0.0000
            RECHARGE =         528.4927              RECHARGE =           1.6164

           TOTAL OUT =        2396.4656             TOTAL OUT =           5.2650

            IN - OUT =      -7.3242E-04              IN - OUT =       9.4414E-05

 PERCENT DISCREPANCY =          -0.00     PERCENT DISCREPANCY =           0.00






         TIME SUMMARY AT END OF TIME STEP    1 IN STRESS PERIOD  176
                    SECONDS     MINUTES      HOURS       DAYS        YEARS
                    -----------------------------------------------------------
   TIME STEP LENGTH  86400.      1440.0      24.000      1.0000     2.73785E-03
 STRESS PERIOD TIME  86400.      1440.0      24.000      1.0000     2.73785E-03
         TOTAL TIME 1.52064E+07 2.53440E+05  4224.0      176.00     0.48186    
1
1
                            STRESS PERIOD NO.  177, LENGTH =   1.000000    
                            -----------------------------------------------

                              NUMBER OF TIME STEPS =     1

                               MULTIPLIER FOR DELT =     1.000

                            INITIAL TIME STEP SIZE =   1.000000    

 REUSING NON-PARAMETER RIVER REACHES FROM LAST STRESS PERIOD

      2 RIVER REACHES

                 RECHARGE =  5.435345E-04
 
 SOLVING FOR HEAD 

 OUTPUT CONTROL FOR STRESS PERIOD  177   TIME STEP    1
    SAVE HEAD FOR ALL LAYERS

 HEAD WILL BE SAVED ON UNIT   51 AT END OF TIME STEP    1, STRESS PERIOD  177
1
  VOLUMETRIC BUDGET FOR ENTIRE MODEL AT END OF TIME STEP    1, STRESS PERIOD 177
  ------------------------------------------------------------------------------

     CUMULATIVE VOLUMES      L**3       RATES FOR THIS TIME STEP      L**3/T
     ------------------                 ------------------------

           IN:                                      IN:
           ---                                      ---
             STORAGE =        1036.4001               STORAGE =           0.3841
       CONSTANT HEAD =           0.0000         CONSTANT HEAD =           0.0000
       RIVER LEAKAGE =          18.8214         RIVER LEAKAGE =           0.7850
            RECHARGE =        1347.8478              RECHARGE =           5.4353

            TOTAL IN =        2403.0693              TOTAL IN =           6.6044

          OUT:                                     OUT:
          ----                                     ----
             STORAGE =         519.8663               STORAGE =           3.3929
       CONSTANT HEAD =         591.5895         CONSTANT HEAD =           3.2116
       RIVER LEAKAGE =         763.1215         RIVER LEAKAGE =           0.0000
            RECHARGE =         528.4927              RECHARGE =           0.0000

           TOTAL OUT =        2403.0701             TOTAL OUT =           6.6045

            IN - OUT =      -7.3242E-04              IN - OUT =      -1.1492E-04

 PERCENT DISCREPANCY =          -0.00     PERCENT DISCREPANCY =          -0.00






         TIME SUMMARY AT END OF TIME STEP    1 IN STRESS PERIOD  177
                    SECONDS     MINUTES      HOURS       DAYS        YEARS
                    -----------------------------------------------------------
   TIME STEP LENGTH  86400.      1440.0      24.000      1.0000     2.73785E-03
 STRESS PERIOD TIME  86400.      1440.0      24.000      1.0000     2.73785E-03
         TOTAL TIME 1.52928E+07 2.54880E+05  4248.0      177.00     0.48460    
1
1
                            STRESS PERIOD NO.  178, LENGTH =   1.000000    
                            -----------------------------------------------

                              NUMBER OF TIME STEPS =     1

                               MULTIPLIER FOR DELT =     1.000

                            INITIAL TIME STEP SIZE =   1.000000    

 REUSING NON-PARAMETER RIVER REACHES FROM LAST STRESS PERIOD

      2 RIVER REACHES

                 RECHARGE = -9.715518E-04
 
 SOLVING FOR HEAD 

 OUTPUT CONTROL FOR STRESS PERIOD  178   TIME STEP    1
    SAVE HEAD FOR ALL LAYERS

 HEAD WILL BE SAVED ON UNIT   51 AT END OF TIME STEP    1, STRESS PERIOD  178
1
  VOLUMETRIC BUDGET FOR ENTIRE MODEL AT END OF TIME STEP    1, STRESS PERIOD 178
  ------------------------------------------------------------------------------

     CUMULATIVE VOLUMES      L**3       RATES FOR THIS TIME STEP      L**3/T
     ------------------                 ------------------------

           IN:                                      IN:
           ---                                      ---
             STORAGE =        1048.2080               STORAGE =          11.8079
       CONSTANT HEAD =           0.0000         CONSTANT HEAD =           0.0000
       RIVER LEAKAGE =          19.9366         RIVER LEAKAGE =           1.1152
            RECHARGE =        1347.8478              RECHARGE =           0.0000

            TOTAL IN =        2415.9922              TOTAL IN =          12.9231

          OUT:                                     OUT:
          ----                                     ----
             STORAGE =         519.8663               STORAGE =           0.0000
       CONSTANT HEAD =         594.7971         CONSTANT HEAD =           3.2075
       RIVER LEAKAGE =         763.1215         RIVER LEAKAGE =           0.0000
            RECHARGE =         538.2083              RECHARGE =           9.7155

           TOTAL OUT =        2415.9932             TOTAL OUT =          12.9231

            IN - OUT =      -9.7656E-04              IN - OUT =       8.5831E-06

 PERCENT DISCREPANCY =          -0.00     PERCENT DISCREPANCY =           0.00






         TIME SUMMARY AT END OF TIME STEP    1 IN STRESS PERIOD  178
                    SECONDS     MINUTES      HOURS       DAYS        YEARS
                    -----------------------------------------------------------
   TIME STEP LENGTH  86400.      1440.0      24.000      1.0000     2.73785E-03
 STRESS PERIOD TIME  86400.      1440.0      24.000      1.0000     2.73785E-03
         TOTAL TIME 1.53792E+07 2.56320E+05  4272.0      178.00     0.48734    
1
1
                            STRESS PERIOD NO.  179, LENGTH =   1.000000    
                            -----------------------------------------------

                              NUMBER OF TIME STEPS =     1

                               MULTIPLIER FOR DELT =     1.000

                            INITIAL TIME STEP SIZE =   1.000000    

 REUSING NON-PARAMETER RIVER REACHES FROM LAST STRESS PERIOD

      2 RIVER REACHES

                 RECHARGE = -1.206897E-03
 
 SOLVING FOR HEAD 

 OUTPUT CONTROL FOR STRESS PERIOD  179   TIME STEP    1
    SAVE HEAD FOR ALL LAYERS

 HEAD WILL BE SAVED ON UNIT   51 AT END OF TIME STEP    1, STRESS PERIOD  179
1
  VOLUMETRIC BUDGET FOR ENTIRE MODEL AT END OF TIME STEP    1, STRESS PERIOD 179
  ------------------------------------------------------------------------------

     CUMULATIVE VOLUMES      L**3       RATES FOR THIS TIME STEP      L**3/T
     ------------------                 ------------------------

           IN:                                      IN:
           ---                                      ---
             STORAGE =        1062.1044               STORAGE =          13.8964
       CONSTANT HEAD =           0.0000         CONSTANT HEAD =           0.0000
       RIVER LEAKAGE =          21.3122         RIVER LEAKAGE =           1.3756
            RECHARGE =        1347.8478              RECHARGE =           0.0000

            TOTAL IN =        2431.2642              TOTAL IN =          15.2720

          OUT:                                     OUT:
          ----                                     ----
             STORAGE =         519.8663               STORAGE =           0.0000
       CONSTANT HEAD =         598.0004         CONSTANT HEAD =           3.2033
       RIVER LEAKAGE =         763.1215         RIVER LEAKAGE =           0.0000
            RECHARGE =         550.2772              RECHARGE =          12.0690

           TOTAL OUT =        2431.2656             TOTAL OUT =          15.2723

            IN - OUT =      -1.4648E-03              IN - OUT =      -2.7466E-04

 PERCENT DISCREPANCY =          -0.00     PERCENT DISCREPANCY =          -0.00






         TIME SUMMARY AT END OF TIME STEP    1 IN STRESS PERIOD  179
                    SECONDS     MINUTES      HOURS       DAYS        YEARS
                    -----------------------------------------------------------
   TIME STEP LENGTH  86400.      1440.0      24.000      1.0000     2.73785E-03
 STRESS PERIOD TIME  86400.      1440.0      24.000      1.0000     2.73785E-03
         TOTAL TIME 1.54656E+07 2.57760E+05  4296.0      179.00     0.49008    
1
1
                            STRESS PERIOD NO.  180, LENGTH =   1.000000    
                            -----------------------------------------------

                              NUMBER OF TIME STEPS =     1

                               MULTIPLIER FOR DELT =     1.000

                            INITIAL TIME STEP SIZE =   1.000000    

 REUSING NON-PARAMETER RIVER REACHES FROM LAST STRESS PERIOD

      2 RIVER REACHES

                 RECHARGE = -1.487069E-03
 
 SOLVING FOR HEAD 

 OUTPUT CONTROL FOR STRESS PERIOD  180   TIME STEP    1
    SAVE HEAD FOR ALL LAYERS

 HEAD WILL BE SAVED ON UNIT   51 AT END OF TIME STEP    1, STRESS PERIOD  180
1
  VOLUMETRIC BUDGET FOR ENTIRE MODEL AT END OF TIME STEP    1, STRESS PERIOD 180
  ------------------------------------------------------------------------------

     CUMULATIVE VOLUMES      L**3       RATES FOR THIS TIME STEP      L**3/T
     ------------------                 ------------------------

           IN:                                      IN:
           ---                                      ---
             STORAGE =        1078.5184               STORAGE =          16.4141
       CONSTANT HEAD =           0.0000         CONSTANT HEAD =           0.0000
       RIVER LEAKAGE =          22.9675         RIVER LEAKAGE =           1.6554
            RECHARGE =        1347.8478              RECHARGE =           0.0000

            TOTAL IN =        2449.3337              TOTAL IN =          18.0695

          OUT:                                     OUT:
          ----                                     ----
             STORAGE =         519.8663               STORAGE =           0.0000
       CONSTANT HEAD =         601.1992         CONSTANT HEAD =           3.1989
       RIVER LEAKAGE =         763.1215         RIVER LEAKAGE =           0.0000
            RECHARGE =         565.1479              RECHARGE =          14.8707

           TOTAL OUT =        2449.3350             TOTAL OUT =          18.0696

            IN - OUT =      -1.2207E-03              IN - OUT =      -7.8201E-05

 PERCENT DISCREPANCY =          -0.00     PERCENT DISCREPANCY =          -0.00






         TIME SUMMARY AT END OF TIME STEP    1 IN STRESS PERIOD  180
                    SECONDS     MINUTES      HOURS       DAYS        YEARS
                    -----------------------------------------------------------
   TIME STEP LENGTH  86400.      1440.0      24.000      1.0000     2.73785E-03
 STRESS PERIOD TIME  86400.      1440.0      24.000      1.0000     2.73785E-03
         TOTAL TIME 1.55520E+07 2.59200E+05  4320.0      180.00     0.49281    
1
1
                            STRESS PERIOD NO.  181, LENGTH =   1.000000    
                            -----------------------------------------------

                              NUMBER OF TIME STEPS =     1

                               MULTIPLIER FOR DELT =     1.000

                            INITIAL TIME STEP SIZE =   1.000000    

 REUSING NON-PARAMETER RIVER REACHES FROM LAST STRESS PERIOD

      2 RIVER REACHES

                 RECHARGE =  4.137931E-05
 
 SOLVING FOR HEAD 

 OUTPUT CONTROL FOR STRESS PERIOD  181   TIME STEP    1
    SAVE HEAD FOR ALL LAYERS

 HEAD WILL BE SAVED ON UNIT   51 AT END OF TIME STEP    1, STRESS PERIOD  181
1
  VOLUMETRIC BUDGET FOR ENTIRE MODEL AT END OF TIME STEP    1, STRESS PERIOD 181
  ------------------------------------------------------------------------------

     CUMULATIVE VOLUMES      L**3       RATES FOR THIS TIME STEP      L**3/T
     ------------------                 ------------------------

           IN:                                      IN:
           ---                                      ---
             STORAGE =        1081.0796               STORAGE =           2.5611
       CONSTANT HEAD =           0.0000         CONSTANT HEAD =           0.0000
       RIVER LEAKAGE =          24.3006         RIVER LEAKAGE =           1.3330
            RECHARGE =        1348.2616              RECHARGE =           0.4138

            TOTAL IN =        2453.6416              TOTAL IN =           4.3079

          OUT:                                     OUT:
          ----                                     ----
             STORAGE =         520.9795               STORAGE =           1.1132
       CONSTANT HEAD =         604.3940         CONSTANT HEAD =           3.1949
       RIVER LEAKAGE =         763.1215         RIVER LEAKAGE =           0.0000
            RECHARGE =         565.1479              RECHARGE =           0.0000

           TOTAL OUT =        2453.6431             TOTAL OUT =           4.3080

            IN - OUT =      -1.4648E-03              IN - OUT =      -9.9182E-05

 PERCENT DISCREPANCY =          -0.00     PERCENT DISCREPANCY =          -0.00






         TIME SUMMARY AT END OF TIME STEP    1 IN STRESS PERIOD  181
                    SECONDS     MINUTES      HOURS       DAYS        YEARS
                    -----------------------------------------------------------
   TIME STEP LENGTH  86400.      1440.0      24.000      1.0000     2.73785E-03
 STRESS PERIOD TIME  86400.      1440.0      24.000      1.0000     2.73785E-03
         TOTAL TIME 1.56384E+07 2.60640E+05  4344.0      181.00     0.49555    
1
1
                            STRESS PERIOD NO.  182, LENGTH =   1.000000    
                            -----------------------------------------------

                              NUMBER OF TIME STEPS =     1

                               MULTIPLIER FOR DELT =     1.000

                            INITIAL TIME STEP SIZE =   1.000000    

 REUSING NON-PARAMETER RIVER REACHES FROM LAST STRESS PERIOD

      2 RIVER REACHES

                 RECHARGE = -5.461207E-04
 
 SOLVING FOR HEAD 

 OUTPUT CONTROL FOR STRESS PERIOD  182   TIME STEP    1
    SAVE HEAD FOR ALL LAYERS

 HEAD WILL BE SAVED ON UNIT   51 AT END OF TIME STEP    1, STRESS PERIOD  182
1
  VOLUMETRIC BUDGET FOR ENTIRE MODEL AT END OF TIME STEP    1, STRESS PERIOD 182
  ------------------------------------------------------------------------------

     CUMULATIVE VOLUMES      L**3       RATES FOR THIS TIME STEP      L**3/T
     ------------------                 ------------------------

           IN:                                      IN:
           ---                                      ---
             STORAGE =        1088.3483               STORAGE =           7.2686
       CONSTANT HEAD =           0.0000         CONSTANT HEAD =           0.0000
       RIVER LEAKAGE =          25.6839         RIVER LEAKAGE =           1.3834
            RECHARGE =        1348.2616              RECHARGE =           0.0000

            TOTAL IN =        2462.2939              TOTAL IN =           8.6520

          OUT:                                     OUT:
          ----                                     ----
             STORAGE =         520.9795               STORAGE =           0.0000
       CONSTANT HEAD =         607.5848         CONSTANT HEAD =           3.1908
       RIVER LEAKAGE =         763.1215         RIVER LEAKAGE =           0.0000
            RECHARGE =         570.6091              RECHARGE =           5.4612

           TOTAL OUT =        2462.2949             TOTAL OUT =           8.6520

            IN - OUT =      -9.7656E-04              IN - OUT =       3.4332E-05

 PERCENT DISCREPANCY =          -0.00     PERCENT DISCREPANCY =           0.00






         TIME SUMMARY AT END OF TIME STEP    1 IN STRESS PERIOD  182
                    SECONDS     MINUTES      HOURS       DAYS        YEARS
                    -----------------------------------------------------------
   TIME STEP LENGTH  86400.      1440.0      24.000      1.0000     2.73785E-03
 STRESS PERIOD TIME  86400.      1440.0      24.000      1.0000     2.73785E-03
         TOTAL TIME 1.57248E+07 2.62080E+05  4368.0      182.00     0.49829    
1
1
                            STRESS PERIOD NO.  183, LENGTH =   1.000000    
                            -----------------------------------------------

                              NUMBER OF TIME STEPS =     1

                               MULTIPLIER FOR DELT =     1.000

                            INITIAL TIME STEP SIZE =   1.000000    

 REUSING NON-PARAMETER RIVER REACHES FROM LAST STRESS PERIOD

      2 RIVER REACHES

                 RECHARGE = -2.469828E-04
 
 SOLVING FOR HEAD 

 OUTPUT CONTROL FOR STRESS PERIOD  183   TIME STEP    1
    SAVE HEAD FOR ALL LAYERS

 HEAD WILL BE SAVED ON UNIT   51 AT END OF TIME STEP    1, STRESS PERIOD  183
1
  VOLUMETRIC BUDGET FOR ENTIRE MODEL AT END OF TIME STEP    1, STRESS PERIOD 183
  ------------------------------------------------------------------------------

     CUMULATIVE VOLUMES      L**3       RATES FOR THIS TIME STEP      L**3/T
     ------------------                 ------------------------

           IN:                                      IN:
           ---                                      ---
             STORAGE =        1092.9004               STORAGE =           4.5521
       CONSTANT HEAD =           0.0000         CONSTANT HEAD =           0.0000
       RIVER LEAKAGE =          26.9914         RIVER LEAKAGE =           1.3075
            RECHARGE =        1348.2616              RECHARGE =           0.0000

            TOTAL IN =        2468.1533              TOTAL IN =           5.8596

          OUT:                                     OUT:
          ----                                     ----
             STORAGE =         521.1823               STORAGE =           0.2028
       CONSTANT HEAD =         610.7715         CONSTANT HEAD =           3.1867
       RIVER LEAKAGE =         763.1215         RIVER LEAKAGE =           0.0000
            RECHARGE =         573.0789              RECHARGE =           2.4698

           TOTAL OUT =        2468.1543             TOTAL OUT =           5.8594

            IN - OUT =      -9.7656E-04              IN - OUT =       1.5974E-04

 PERCENT DISCREPANCY =          -0.00     PERCENT DISCREPANCY =           0.00






         TIME SUMMARY AT END OF TIME STEP    1 IN STRESS PERIOD  183
                    SECONDS     MINUTES      HOURS       DAYS        YEARS
                    -----------------------------------------------------------
   TIME STEP LENGTH  86400.      1440.0      24.000      1.0000     2.73785E-03
 STRESS PERIOD TIME  86400.      1440.0      24.000      1.0000     2.73785E-03
         TOTAL TIME 1.58112E+07 2.63520E+05  4392.0      183.00     0.50103    
1
1
                            STRESS PERIOD NO.  184, LENGTH =   1.000000    
                            -----------------------------------------------

                              NUMBER OF TIME STEPS =     1

                               MULTIPLIER FOR DELT =     1.000

                            INITIAL TIME STEP SIZE =   1.000000    

 REUSING NON-PARAMETER RIVER REACHES FROM LAST STRESS PERIOD

      2 RIVER REACHES

                 RECHARGE = -1.325000E-03
 
 SOLVING FOR HEAD 

 OUTPUT CONTROL FOR STRESS PERIOD  184   TIME STEP    1
    SAVE HEAD FOR ALL LAYERS

 HEAD WILL BE SAVED ON UNIT   51 AT END OF TIME STEP    1, STRESS PERIOD  184
1
  VOLUMETRIC BUDGET FOR ENTIRE MODEL AT END OF TIME STEP    1, STRESS PERIOD 184
  ------------------------------------------------------------------------------

     CUMULATIVE VOLUMES      L**3       RATES FOR THIS TIME STEP      L**3/T
     ------------------                 ------------------------

           IN:                                      IN:
           ---                                      ---
             STORAGE =        1107.6885               STORAGE =          14.7881
       CONSTANT HEAD =           0.0000         CONSTANT HEAD =           0.0000
       RIVER LEAKAGE =          28.6355         RIVER LEAKAGE =           1.6441
            RECHARGE =        1348.2616              RECHARGE =           0.0000

            TOTAL IN =        2484.5854              TOTAL IN =          16.4322

          OUT:                                     OUT:
          ----                                     ----
             STORAGE =         521.1823               STORAGE =           0.0000
       CONSTANT HEAD =         613.9540         CONSTANT HEAD =           3.1824
       RIVER LEAKAGE =         763.1215         RIVER LEAKAGE =           0.0000
            RECHARGE =         586.3289              RECHARGE =          13.2500

           TOTAL OUT =        2484.5867             TOTAL OUT =          16.4324

            IN - OUT =      -1.2207E-03              IN - OUT =      -1.7166E-04

 PERCENT DISCREPANCY =          -0.00     PERCENT DISCREPANCY =          -0.00






         TIME SUMMARY AT END OF TIME STEP    1 IN STRESS PERIOD  184
                    SECONDS     MINUTES      HOURS       DAYS        YEARS
                    -----------------------------------------------------------
   TIME STEP LENGTH  86400.      1440.0      24.000      1.0000     2.73785E-03
 STRESS PERIOD TIME  86400.      1440.0      24.000      1.0000     2.73785E-03
         TOTAL TIME 1.58976E+07 2.64960E+05  4416.0      184.00     0.50376    
1
1
                            STRESS PERIOD NO.  185, LENGTH =   1.000000    
                            -----------------------------------------------

                              NUMBER OF TIME STEPS =     1

                               MULTIPLIER FOR DELT =     1.000

                            INITIAL TIME STEP SIZE =   1.000000    

 REUSING NON-PARAMETER RIVER REACHES FROM LAST STRESS PERIOD

      2 RIVER REACHES

                 RECHARGE = -9.025862E-04
 
 SOLVING FOR HEAD 

 OUTPUT CONTROL FOR STRESS PERIOD  185   TIME STEP    1
    SAVE HEAD FOR ALL LAYERS

 HEAD WILL BE SAVED ON UNIT   51 AT END OF TIME STEP    1, STRESS PERIOD  185
1
  VOLUMETRIC BUDGET FOR ENTIRE MODEL AT END OF TIME STEP    1, STRESS PERIOD 185
  ------------------------------------------------------------------------------

     CUMULATIVE VOLUMES      L**3       RATES FOR THIS TIME STEP      L**3/T
     ------------------                 ------------------------

           IN:                                      IN:
           ---                                      ---
             STORAGE =        1118.1854               STORAGE =          10.4969
       CONSTANT HEAD =           0.0000         CONSTANT HEAD =           0.0000
       RIVER LEAKAGE =          30.3428         RIVER LEAKAGE =           1.7072
            RECHARGE =        1348.2616              RECHARGE =           0.0000

            TOTAL IN =        2496.7898              TOTAL IN =          12.2042

          OUT:                                     OUT:
          ----                                     ----
             STORAGE =         521.1823               STORAGE =           0.0000
       CONSTANT HEAD =         617.1321         CONSTANT HEAD =           3.1781
       RIVER LEAKAGE =         763.1215         RIVER LEAKAGE =           0.0000
            RECHARGE =         595.3548              RECHARGE =           9.0259

           TOTAL OUT =        2496.7908             TOTAL OUT =          12.2040

            IN - OUT =      -9.7656E-04              IN - OUT =       1.9741E-04

 PERCENT DISCREPANCY =          -0.00     PERCENT DISCREPANCY =           0.00






         TIME SUMMARY AT END OF TIME STEP    1 IN STRESS PERIOD  185
                    SECONDS     MINUTES      HOURS       DAYS        YEARS
                    -----------------------------------------------------------
   TIME STEP LENGTH  86400.      1440.0      24.000      1.0000     2.73785E-03
 STRESS PERIOD TIME  86400.      1440.0      24.000      1.0000     2.73785E-03
         TOTAL TIME 1.59840E+07 2.66400E+05  4440.0      185.00     0.50650    
1
1
                            STRESS PERIOD NO.  186, LENGTH =   1.000000    
                            -----------------------------------------------

                              NUMBER OF TIME STEPS =     1

                               MULTIPLIER FOR DELT =     1.000

                            INITIAL TIME STEP SIZE =   1.000000    

 REUSING NON-PARAMETER RIVER REACHES FROM LAST STRESS PERIOD

      2 RIVER REACHES

                 RECHARGE = -9.702586E-04
 
 SOLVING FOR HEAD 

 OUTPUT CONTROL FOR STRESS PERIOD  186   TIME STEP    1
    SAVE HEAD FOR ALL LAYERS

 HEAD WILL BE SAVED ON UNIT   51 AT END OF TIME STEP    1, STRESS PERIOD  186
1
  VOLUMETRIC BUDGET FOR ENTIRE MODEL AT END OF TIME STEP    1, STRESS PERIOD 186
  ------------------------------------------------------------------------------

     CUMULATIVE VOLUMES      L**3       RATES FOR THIS TIME STEP      L**3/T
     ------------------                 ------------------------

           IN:                                      IN:
           ---                                      ---
             STORAGE =        1129.2566               STORAGE =          11.0712
       CONSTANT HEAD =           0.0000         CONSTANT HEAD =           0.0000
       RIVER LEAKAGE =          32.1480         RIVER LEAKAGE =           1.8052
            RECHARGE =        1348.2616              RECHARGE =           0.0000

            TOTAL IN =        2509.6660              TOTAL IN =          12.8764

          OUT:                                     OUT:
          ----                                     ----
             STORAGE =         521.1823               STORAGE =           0.0000
       CONSTANT HEAD =         620.3058         CONSTANT HEAD =           3.1737
       RIVER LEAKAGE =         763.1215         RIVER LEAKAGE =           0.0000
            RECHARGE =         605.0574              RECHARGE =           9.7026

           TOTAL OUT =        2509.6670             TOTAL OUT =          12.8763

            IN - OUT =      -9.7656E-04              IN - OUT =       1.1063E-04

 PERCENT DISCREPANCY =          -0.00     PERCENT DISCREPANCY =           0.00






         TIME SUMMARY AT END OF TIME STEP    1 IN STRESS PERIOD  186
                    SECONDS     MINUTES      HOURS       DAYS        YEARS
                    -----------------------------------------------------------
   TIME STEP LENGTH  86400.      1440.0      24.000      1.0000     2.73785E-03
 STRESS PERIOD TIME  86400.      1440.0      24.000      1.0000     2.73785E-03
         TOTAL TIME 1.60704E+07 2.67840E+05  4464.0      186.00     0.50924    
1
1
                            STRESS PERIOD NO.  187, LENGTH =   1.000000    
                            -----------------------------------------------

                              NUMBER OF TIME STEPS =     1

                               MULTIPLIER FOR DELT =     1.000

                            INITIAL TIME STEP SIZE =   1.000000    

 REUSING NON-PARAMETER RIVER REACHES FROM LAST STRESS PERIOD

      2 RIVER REACHES

                 RECHARGE =  6.551724E-05
 
 SOLVING FOR HEAD 

 OUTPUT CONTROL FOR STRESS PERIOD  187   TIME STEP    1
    SAVE HEAD FOR ALL LAYERS

 HEAD WILL BE SAVED ON UNIT   51 AT END OF TIME STEP    1, STRESS PERIOD  187
1
  VOLUMETRIC BUDGET FOR ENTIRE MODEL AT END OF TIME STEP    1, STRESS PERIOD 187
  ------------------------------------------------------------------------------

     CUMULATIVE VOLUMES      L**3       RATES FOR THIS TIME STEP      L**3/T
     ------------------                 ------------------------

           IN:                                      IN:
           ---                                      ---
             STORAGE =        1131.4502               STORAGE =           2.1936
       CONSTANT HEAD =           0.0000         CONSTANT HEAD =           0.0000
       RIVER LEAKAGE =          33.6802         RIVER LEAKAGE =           1.5322
            RECHARGE =        1348.9167              RECHARGE =           0.6552

            TOTAL IN =        2514.0471              TOTAL IN =           4.3810

          OUT:                                     OUT:
          ----                                     ----
             STORAGE =         522.3936               STORAGE =           1.2113
       CONSTANT HEAD =         623.4755         CONSTANT HEAD =           3.1697
       RIVER LEAKAGE =         763.1215         RIVER LEAKAGE =           0.0000
            RECHARGE =         605.0574              RECHARGE =           0.0000

           TOTAL OUT =        2514.0479             TOTAL OUT =           4.3809

            IN - OUT =      -7.3242E-04              IN - OUT =       4.3869E-05

 PERCENT DISCREPANCY =          -0.00     PERCENT DISCREPANCY =           0.00






         TIME SUMMARY AT END OF TIME STEP    1 IN STRESS PERIOD  187
                    SECONDS     MINUTES      HOURS       DAYS        YEARS
                    -----------------------------------------------------------
   TIME STEP LENGTH  86400.      1440.0      24.000      1.0000     2.73785E-03
 STRESS PERIOD TIME  86400.      1440.0      24.000      1.0000     2.73785E-03
         TOTAL TIME 1.61568E+07 2.69280E+05  4488.0      187.00     0.51198    
1
1
                            STRESS PERIOD NO.  188, LENGTH =   1.000000    
                            -----------------------------------------------

                              NUMBER OF TIME STEPS =     1

                               MULTIPLIER FOR DELT =     1.000

                            INITIAL TIME STEP SIZE =   1.000000    

 REUSING NON-PARAMETER RIVER REACHES FROM LAST STRESS PERIOD

      2 RIVER REACHES

                 RECHARGE = -7.310345E-04
 
 SOLVING FOR HEAD 

 OUTPUT CONTROL FOR STRESS PERIOD  188   TIME STEP    1
    SAVE HEAD FOR ALL LAYERS

 HEAD WILL BE SAVED ON UNIT   51 AT END OF TIME STEP    1, STRESS PERIOD  188
1
  VOLUMETRIC BUDGET FOR ENTIRE MODEL AT END OF TIME STEP    1, STRESS PERIOD 188
  ------------------------------------------------------------------------------

     CUMULATIVE VOLUMES      L**3       RATES FOR THIS TIME STEP      L**3/T
     ------------------                 ------------------------

           IN:                                      IN:
           ---                                      ---
             STORAGE =        1140.2603               STORAGE =           8.8100
       CONSTANT HEAD =           0.0000         CONSTANT HEAD =           0.0000
       RIVER LEAKAGE =          35.3461         RIVER LEAKAGE =           1.6659
            RECHARGE =        1348.9167              RECHARGE =           0.0000

            TOTAL IN =        2524.5229              TOTAL IN =          10.4759

          OUT:                                     OUT:
          ----                                     ----
             STORAGE =         522.3936               STORAGE =           0.0000
       CONSTANT HEAD =         626.6409         CONSTANT HEAD =           3.1655
       RIVER LEAKAGE =         763.1215         RIVER LEAKAGE =           0.0000
            RECHARGE =         612.3677              RECHARGE =           7.3103

           TOTAL OUT =        2524.5237             TOTAL OUT =          10.4758

            IN - OUT =      -7.3242E-04              IN - OUT =       1.1349E-04

 PERCENT DISCREPANCY =          -0.00     PERCENT DISCREPANCY =           0.00






         TIME SUMMARY AT END OF TIME STEP    1 IN STRESS PERIOD  188
                    SECONDS     MINUTES      HOURS       DAYS        YEARS
                    -----------------------------------------------------------
   TIME STEP LENGTH  86400.      1440.0      24.000      1.0000     2.73785E-03
 STRESS PERIOD TIME  86400.      1440.0      24.000      1.0000     2.73785E-03
         TOTAL TIME 1.62432E+07 2.70720E+05  4512.0      188.00     0.51472    
1
1
                            STRESS PERIOD NO.  189, LENGTH =   1.000000    
                            -----------------------------------------------

                              NUMBER OF TIME STEPS =     1

                               MULTIPLIER FOR DELT =     1.000

                            INITIAL TIME STEP SIZE =   1.000000    

 REUSING NON-PARAMETER RIVER REACHES FROM LAST STRESS PERIOD

      2 RIVER REACHES

                 RECHARGE = -7.590517E-04
 
 SOLVING FOR HEAD 

 OUTPUT CONTROL FOR STRESS PERIOD  189   TIME STEP    1
    SAVE HEAD FOR ALL LAYERS

 HEAD WILL BE SAVED ON UNIT   51 AT END OF TIME STEP    1, STRESS PERIOD  189
1
  VOLUMETRIC BUDGET FOR ENTIRE MODEL AT END OF TIME STEP    1, STRESS PERIOD 189
  ------------------------------------------------------------------------------

     CUMULATIVE VOLUMES      L**3       RATES FOR THIS TIME STEP      L**3/T
     ------------------                 ------------------------

           IN:                                      IN:
           ---                                      ---
             STORAGE =        1149.2609               STORAGE =           9.0006
       CONSTANT HEAD =           0.0000         CONSTANT HEAD =           0.0000
       RIVER LEAKAGE =          37.0969         RIVER LEAKAGE =           1.7508
            RECHARGE =        1348.9167              RECHARGE =           0.0000

            TOTAL IN =        2535.2744              TOTAL IN =          10.7515

          OUT:                                     OUT:
          ----                                     ----
             STORAGE =         522.3936               STORAGE =           0.0000
       CONSTANT HEAD =         629.8021         CONSTANT HEAD =           3.1612
       RIVER LEAKAGE =         763.1215         RIVER LEAKAGE =           0.0000
            RECHARGE =         619.9583              RECHARGE =           7.5905

           TOTAL OUT =        2535.2754             TOTAL OUT =          10.7517

            IN - OUT =      -9.7656E-04              IN - OUT =      -2.3937E-04

 PERCENT DISCREPANCY =          -0.00     PERCENT DISCREPANCY =          -0.00






         TIME SUMMARY AT END OF TIME STEP    1 IN STRESS PERIOD  189
                    SECONDS     MINUTES      HOURS       DAYS        YEARS
                    -----------------------------------------------------------
   TIME STEP LENGTH  86400.      1440.0      24.000      1.0000     2.73785E-03
 STRESS PERIOD TIME  86400.      1440.0      24.000      1.0000     2.73785E-03
         TOTAL TIME 1.63296E+07 2.72160E+05  4536.0      189.00     0.51745    
1
1
                            STRESS PERIOD NO.  190, LENGTH =   1.000000    
                            -----------------------------------------------

                              NUMBER OF TIME STEPS =     1

                               MULTIPLIER FOR DELT =     1.000

                            INITIAL TIME STEP SIZE =   1.000000    

 REUSING NON-PARAMETER RIVER REACHES FROM LAST STRESS PERIOD

      2 RIVER REACHES

                 RECHARGE = -6.875000E-04
 
 SOLVING FOR HEAD 

 OUTPUT CONTROL FOR STRESS PERIOD  190   TIME STEP    1
    SAVE HEAD FOR ALL LAYERS

 HEAD WILL BE SAVED ON UNIT   51 AT END OF TIME STEP    1, STRESS PERIOD  190
1
  VOLUMETRIC BUDGET FOR ENTIRE MODEL AT END OF TIME STEP    1, STRESS PERIOD 190
  ------------------------------------------------------------------------------

     CUMULATIVE VOLUMES      L**3       RATES FOR THIS TIME STEP      L**3/T
     ------------------                 ------------------------

           IN:                                      IN:
           ---                                      ---
             STORAGE =        1157.5006               STORAGE =           8.2398
       CONSTANT HEAD =           0.0000         CONSTANT HEAD =           0.0000
       RIVER LEAKAGE =          38.8891         RIVER LEAKAGE =           1.7922
            RECHARGE =        1348.9167              RECHARGE =           0.0000

            TOTAL IN =        2545.3064              TOTAL IN =          10.0320

          OUT:                                     OUT:
          ----                                     ----
             STORAGE =         522.3936               STORAGE =           0.0000
       CONSTANT HEAD =         632.9591         CONSTANT HEAD =           3.1570
       RIVER LEAKAGE =         763.1215         RIVER LEAKAGE =           0.0000
            RECHARGE =         626.8333              RECHARGE =           6.8750

           TOTAL OUT =        2545.3074             TOTAL OUT =          10.0320

            IN - OUT =      -9.7656E-04              IN - OUT =       2.0027E-05

 PERCENT DISCREPANCY =          -0.00     PERCENT DISCREPANCY =           0.00






         TIME SUMMARY AT END OF TIME STEP    1 IN STRESS PERIOD  190
                    SECONDS     MINUTES      HOURS       DAYS        YEARS
                    -----------------------------------------------------------
   TIME STEP LENGTH  86400.      1440.0      24.000      1.0000     2.73785E-03
 STRESS PERIOD TIME  86400.      1440.0      24.000      1.0000     2.73785E-03
         TOTAL TIME 1.64160E+07 2.73600E+05  4560.0      190.00     0.52019    
1
1
                            STRESS PERIOD NO.  191, LENGTH =   1.000000    
                            -----------------------------------------------

                              NUMBER OF TIME STEPS =     1

                               MULTIPLIER FOR DELT =     1.000

                            INITIAL TIME STEP SIZE =   1.000000    

 REUSING NON-PARAMETER RIVER REACHES FROM LAST STRESS PERIOD

      2 RIVER REACHES

                 RECHARGE = -1.103017E-03
 
 SOLVING FOR HEAD 

 OUTPUT CONTROL FOR STRESS PERIOD  191   TIME STEP    1
    SAVE HEAD FOR ALL LAYERS

 HEAD WILL BE SAVED ON UNIT   51 AT END OF TIME STEP    1, STRESS PERIOD  191
1
  VOLUMETRIC BUDGET FOR ENTIRE MODEL AT END OF TIME STEP    1, STRESS PERIOD 191
  ------------------------------------------------------------------------------

     CUMULATIVE VOLUMES      L**3       RATES FOR THIS TIME STEP      L**3/T
     ------------------                 ------------------------

           IN:                                      IN:
           ---                                      ---
             STORAGE =        1169.7035               STORAGE =          12.2028
       CONSTANT HEAD =           0.0000         CONSTANT HEAD =           0.0000
       RIVER LEAKAGE =          40.8689         RIVER LEAKAGE =           1.9798
            RECHARGE =        1348.9167              RECHARGE =           0.0000

            TOTAL IN =        2559.4893              TOTAL IN =          14.1827

          OUT:                                     OUT:
          ----                                     ----
             STORAGE =         522.3936               STORAGE =           0.0000
       CONSTANT HEAD =         636.1116         CONSTANT HEAD =           3.1525
       RIVER LEAKAGE =         763.1215         RIVER LEAKAGE =           0.0000
            RECHARGE =         637.8634              RECHARGE =          11.0302

           TOTAL OUT =        2559.4902             TOTAL OUT =          14.1827

            IN - OUT =      -9.7656E-04              IN - OUT =      -4.5776E-05

 PERCENT DISCREPANCY =          -0.00     PERCENT DISCREPANCY =          -0.00






         TIME SUMMARY AT END OF TIME STEP    1 IN STRESS PERIOD  191
                    SECONDS     MINUTES      HOURS       DAYS        YEARS
                    -----------------------------------------------------------
   TIME STEP LENGTH  86400.      1440.0      24.000      1.0000     2.73785E-03
 STRESS PERIOD TIME  86400.      1440.0      24.000      1.0000     2.73785E-03
         TOTAL TIME 1.65024E+07 2.75040E+05  4584.0      191.00     0.52293    
1
1
                            STRESS PERIOD NO.  192, LENGTH =   1.000000    
                            -----------------------------------------------

                              NUMBER OF TIME STEPS =     1

                               MULTIPLIER FOR DELT =     1.000

                            INITIAL TIME STEP SIZE =   1.000000    

 REUSING NON-PARAMETER RIVER REACHES FROM LAST STRESS PERIOD

      2 RIVER REACHES

                 RECHARGE =  1.065948E-03
 
 SOLVING FOR HEAD 

 OUTPUT CONTROL FOR STRESS PERIOD  192   TIME STEP    1
    SAVE HEAD FOR ALL LAYERS

 HEAD WILL BE SAVED ON UNIT   51 AT END OF TIME STEP    1, STRESS PERIOD  192
1
  VOLUMETRIC BUDGET FOR ENTIRE MODEL AT END OF TIME STEP    1, STRESS PERIOD 192
  ------------------------------------------------------------------------------

     CUMULATIVE VOLUMES      L**3       RATES FOR THIS TIME STEP      L**3/T
     ------------------                 ------------------------

           IN:                                      IN:
           ---                                      ---
             STORAGE =        1170.0150               STORAGE =           0.3115
       CONSTANT HEAD =           0.0000         CONSTANT HEAD =           0.0000
       RIVER LEAKAGE =          42.2273         RIVER LEAKAGE =           1.3584
            RECHARGE =        1359.5762              RECHARGE =          10.6595

            TOTAL IN =        2571.8184              TOTAL IN =          12.3293

          OUT:                                     OUT:
          ----                                     ----
             STORAGE =         531.5742               STORAGE =           9.1807
       CONSTANT HEAD =         639.2604         CONSTANT HEAD =           3.1488
       RIVER LEAKAGE =         763.1215         RIVER LEAKAGE =           0.0000
            RECHARGE =         637.8634              RECHARGE =           0.0000

           TOTAL OUT =        2571.8198             TOTAL OUT =          12.3295

            IN - OUT =      -1.4648E-03              IN - OUT =      -1.7834E-04

 PERCENT DISCREPANCY =          -0.00     PERCENT DISCREPANCY =          -0.00






         TIME SUMMARY AT END OF TIME STEP    1 IN STRESS PERIOD  192
                    SECONDS     MINUTES      HOURS       DAYS        YEARS
                    -----------------------------------------------------------
   TIME STEP LENGTH  86400.      1440.0      24.000      1.0000     2.73785E-03
 STRESS PERIOD TIME  86400.      1440.0      24.000      1.0000     2.73785E-03
         TOTAL TIME 1.65888E+07 2.76480E+05  4608.0      192.00     0.52567    
1
1
                            STRESS PERIOD NO.  193, LENGTH =   1.000000    
                            -----------------------------------------------

                              NUMBER OF TIME STEPS =     1

                               MULTIPLIER FOR DELT =     1.000

                            INITIAL TIME STEP SIZE =   1.000000    

 REUSING NON-PARAMETER RIVER REACHES FROM LAST STRESS PERIOD

      2 RIVER REACHES

                 RECHARGE = -3.995690E-04
 
 SOLVING FOR HEAD 

 OUTPUT CONTROL FOR STRESS PERIOD  193   TIME STEP    1
    SAVE HEAD FOR ALL LAYERS

 HEAD WILL BE SAVED ON UNIT   51 AT END OF TIME STEP    1, STRESS PERIOD  193
1
  VOLUMETRIC BUDGET FOR ENTIRE MODEL AT END OF TIME STEP    1, STRESS PERIOD 193
  ------------------------------------------------------------------------------

     CUMULATIVE VOLUMES      L**3       RATES FOR THIS TIME STEP      L**3/T
     ------------------                 ------------------------

           IN:                                      IN:
           ---                                      ---
             STORAGE =        1175.6451               STORAGE =           5.6302
       CONSTANT HEAD =           0.0000         CONSTANT HEAD =           0.0000
       RIVER LEAKAGE =          43.7379         RIVER LEAKAGE =           1.5106
            RECHARGE =        1359.5762              RECHARGE =           0.0000

            TOTAL IN =        2578.9592              TOTAL IN =           7.1408

          OUT:                                     OUT:
          ----                                     ----
             STORAGE =         531.5742               STORAGE =           0.0000
       CONSTANT HEAD =         642.4053         CONSTANT HEAD =           3.1448
       RIVER LEAKAGE =         763.1215         RIVER LEAKAGE =           0.0000
            RECHARGE =         641.8591              RECHARGE =           3.9957

           TOTAL OUT =        2578.9602             TOTAL OUT =           7.1405

            IN - OUT =      -9.7656E-04              IN - OUT =       2.3127E-04

 PERCENT DISCREPANCY =          -0.00     PERCENT DISCREPANCY =           0.00






         TIME SUMMARY AT END OF TIME STEP    1 IN STRESS PERIOD  193
                    SECONDS     MINUTES      HOURS       DAYS        YEARS
                    -----------------------------------------------------------
   TIME STEP LENGTH  86400.      1440.0      24.000      1.0000     2.73785E-03
 STRESS PERIOD TIME  86400.      1440.0      24.000      1.0000     2.73785E-03
         TOTAL TIME 1.66752E+07 2.77920E+05  4632.0      193.00     0.52841    
1
1
                            STRESS PERIOD NO.  194, LENGTH =   1.000000    
                            -----------------------------------------------

                              NUMBER OF TIME STEPS =     1

                               MULTIPLIER FOR DELT =     1.000

                            INITIAL TIME STEP SIZE =   1.000000    

 REUSING NON-PARAMETER RIVER REACHES FROM LAST STRESS PERIOD

      2 RIVER REACHES

                 RECHARGE = -1.724138E-04
 
 SOLVING FOR HEAD 

 OUTPUT CONTROL FOR STRESS PERIOD  194   TIME STEP    1
    SAVE HEAD FOR ALL LAYERS

 HEAD WILL BE SAVED ON UNIT   51 AT END OF TIME STEP    1, STRESS PERIOD  194
1
  VOLUMETRIC BUDGET FOR ENTIRE MODEL AT END OF TIME STEP    1, STRESS PERIOD 194
  ------------------------------------------------------------------------------

     CUMULATIVE VOLUMES      L**3       RATES FOR THIS TIME STEP      L**3/T
     ------------------                 ------------------------

           IN:                                      IN:
           ---                                      ---
             STORAGE =        1179.1820               STORAGE =           3.5369
       CONSTANT HEAD =           0.0000         CONSTANT HEAD =           0.0000
       RIVER LEAKAGE =          45.2236         RIVER LEAKAGE =           1.4858
            RECHARGE =        1359.5762              RECHARGE =           0.0000

            TOTAL IN =        2583.9819              TOTAL IN =           5.0227

          OUT:                                     OUT:
          ----                                     ----
             STORAGE =         531.7318               STORAGE =           0.1575
       CONSTANT HEAD =         645.5462         CONSTANT HEAD =           3.1409
       RIVER LEAKAGE =         763.1215         RIVER LEAKAGE =           0.0000
            RECHARGE =         643.5832              RECHARGE =           1.7241

           TOTAL OUT =        2583.9827             TOTAL OUT =           5.0226

            IN - OUT =      -7.3242E-04              IN - OUT =       7.8201E-05

 PERCENT DISCREPANCY =          -0.00     PERCENT DISCREPANCY =           0.00






         TIME SUMMARY AT END OF TIME STEP    1 IN STRESS PERIOD  194
                    SECONDS     MINUTES      HOURS       DAYS        YEARS
                    -----------------------------------------------------------
   TIME STEP LENGTH  86400.      1440.0      24.000      1.0000     2.73785E-03
 STRESS PERIOD TIME  86400.      1440.0      24.000      1.0000     2.73785E-03
         TOTAL TIME 1.67616E+07 2.79360E+05  4656.0      194.00     0.53114    
1
1
                            STRESS PERIOD NO.  195, LENGTH =   1.000000    
                            -----------------------------------------------

                              NUMBER OF TIME STEPS =     1

                               MULTIPLIER FOR DELT =     1.000

                            INITIAL TIME STEP SIZE =   1.000000    

 REUSING NON-PARAMETER RIVER REACHES FROM LAST STRESS PERIOD

      2 RIVER REACHES

                 RECHARGE = -1.223276E-03
 
 SOLVING FOR HEAD 

 OUTPUT CONTROL FOR STRESS PERIOD  195   TIME STEP    1
    SAVE HEAD FOR ALL LAYERS

 HEAD WILL BE SAVED ON UNIT   51 AT END OF TIME STEP    1, STRESS PERIOD  195
1
  VOLUMETRIC BUDGET FOR ENTIRE MODEL AT END OF TIME STEP    1, STRESS PERIOD 195
  ------------------------------------------------------------------------------

     CUMULATIVE VOLUMES      L**3       RATES FOR THIS TIME STEP      L**3/T
     ------------------                 ------------------------

           IN:                                      IN:
           ---                                      ---
             STORAGE =        1192.7173               STORAGE =          13.5352
       CONSTANT HEAD =           0.0000         CONSTANT HEAD =           0.0000
       RIVER LEAKAGE =          47.0579         RIVER LEAKAGE =           1.8342
            RECHARGE =        1359.5762              RECHARGE =           0.0000

            TOTAL IN =        2599.3513              TOTAL IN =          15.3695

          OUT:                                     OUT:
          ----                                     ----
             STORAGE =         531.7318               STORAGE =           0.0000
       CONSTANT HEAD =         648.6829         CONSTANT HEAD =           3.1367
       RIVER LEAKAGE =         763.1215         RIVER LEAKAGE =           0.0000
            RECHARGE =         655.8160              RECHARGE =          12.2328

           TOTAL OUT =        2599.3521             TOTAL OUT =          15.3695

            IN - OUT =      -7.3242E-04              IN - OUT =       1.2398E-05

 PERCENT DISCREPANCY =          -0.00     PERCENT DISCREPANCY =           0.00






         TIME SUMMARY AT END OF TIME STEP    1 IN STRESS PERIOD  195
                    SECONDS     MINUTES      HOURS       DAYS        YEARS
                    -----------------------------------------------------------
   TIME STEP LENGTH  86400.      1440.0      24.000      1.0000     2.73785E-03
 STRESS PERIOD TIME  86400.      1440.0      24.000      1.0000     2.73785E-03
         TOTAL TIME 1.68480E+07 2.80800E+05  4680.0      195.00     0.53388    
1
1
                            STRESS PERIOD NO.  196, LENGTH =   1.000000    
                            -----------------------------------------------

                              NUMBER OF TIME STEPS =     1

                               MULTIPLIER FOR DELT =     1.000

                            INITIAL TIME STEP SIZE =   1.000000    

 REUSING NON-PARAMETER RIVER REACHES FROM LAST STRESS PERIOD

      2 RIVER REACHES

                 RECHARGE =  7.000000E-04
 
 SOLVING FOR HEAD 

 OUTPUT CONTROL FOR STRESS PERIOD  196   TIME STEP    1
    SAVE HEAD FOR ALL LAYERS

 HEAD WILL BE SAVED ON UNIT   51 AT END OF TIME STEP    1, STRESS PERIOD  196
1
  VOLUMETRIC BUDGET FOR ENTIRE MODEL AT END OF TIME STEP    1, STRESS PERIOD 196
  ------------------------------------------------------------------------------

     CUMULATIVE VOLUMES      L**3       RATES FOR THIS TIME STEP      L**3/T
     ------------------                 ------------------------

           IN:                                      IN:
           ---                                      ---
             STORAGE =        1193.0228               STORAGE =           0.3055
       CONSTANT HEAD =           0.0000         CONSTANT HEAD =           0.0000
       RIVER LEAKAGE =          48.4375         RIVER LEAKAGE =           1.3796
            RECHARGE =        1366.5762              RECHARGE =           7.0000

            TOTAL IN =        2608.0366              TOTAL IN =           8.6852

          OUT:                                     OUT:
          ----                                     ----
             STORAGE =         537.2839               STORAGE =           5.5521
       CONSTANT HEAD =         651.8159         CONSTANT HEAD =           3.1330
       RIVER LEAKAGE =         763.1215         RIVER LEAKAGE =           0.0000
            RECHARGE =         655.8160              RECHARGE =           0.0000

           TOTAL OUT =        2608.0374             TOTAL OUT =           8.6851

            IN - OUT =      -7.3242E-04              IN - OUT =       6.2943E-05

 PERCENT DISCREPANCY =          -0.00     PERCENT DISCREPANCY =           0.00






         TIME SUMMARY AT END OF TIME STEP    1 IN STRESS PERIOD  196
                    SECONDS     MINUTES      HOURS       DAYS        YEARS
                    -----------------------------------------------------------
   TIME STEP LENGTH  86400.      1440.0      24.000      1.0000     2.73785E-03
 STRESS PERIOD TIME  86400.      1440.0      24.000      1.0000     2.73785E-03
         TOTAL TIME 1.69344E+07 2.82240E+05  4704.0      196.00     0.53662    
1
1
                            STRESS PERIOD NO.  197, LENGTH =   1.000000    
                            -----------------------------------------------

                              NUMBER OF TIME STEPS =     1

                               MULTIPLIER FOR DELT =     1.000

                            INITIAL TIME STEP SIZE =   1.000000    

 REUSING NON-PARAMETER RIVER REACHES FROM LAST STRESS PERIOD

      2 RIVER REACHES

                 RECHARGE = -3.241379E-04
 
 SOLVING FOR HEAD 

 OUTPUT CONTROL FOR STRESS PERIOD  197   TIME STEP    1
    SAVE HEAD FOR ALL LAYERS

 HEAD WILL BE SAVED ON UNIT   51 AT END OF TIME STEP    1, STRESS PERIOD  197
1
  VOLUMETRIC BUDGET FOR ENTIRE MODEL AT END OF TIME STEP    1, STRESS PERIOD 197
  ------------------------------------------------------------------------------

     CUMULATIVE VOLUMES      L**3       RATES FOR THIS TIME STEP      L**3/T
     ------------------                 ------------------------

           IN:                                      IN:
           ---                                      ---
             STORAGE =        1197.9078               STORAGE =           4.8850
       CONSTANT HEAD =           0.0000         CONSTANT HEAD =           0.0000
       RIVER LEAKAGE =          49.9231         RIVER LEAKAGE =           1.4856
            RECHARGE =        1366.5762              RECHARGE =           0.0000

            TOTAL IN =        2614.4072              TOTAL IN =           6.3706

          OUT:                                     OUT:
          ----                                     ----
             STORAGE =         537.2839               STORAGE =           0.0000
       CONSTANT HEAD =         654.9451         CONSTANT HEAD =           3.1291
       RIVER LEAKAGE =         763.1215         RIVER LEAKAGE =           0.0000
            RECHARGE =         659.0574              RECHARGE =           3.2414

           TOTAL OUT =        2614.4080             TOTAL OUT =           6.3705

            IN - OUT =      -7.3242E-04              IN - OUT =       1.3113E-04

 PERCENT DISCREPANCY =          -0.00     PERCENT DISCREPANCY =           0.00






         TIME SUMMARY AT END OF TIME STEP    1 IN STRESS PERIOD  197
                    SECONDS     MINUTES      HOURS       DAYS        YEARS
                    -----------------------------------------------------------
   TIME STEP LENGTH  86400.      1440.0      24.000      1.0000     2.73785E-03
 STRESS PERIOD TIME  86400.      1440.0      24.000      1.0000     2.73785E-03
         TOTAL TIME 1.70208E+07 2.83680E+05  4728.0      197.00     0.53936    
1
1
                            STRESS PERIOD NO.  198, LENGTH =   1.000000    
                            -----------------------------------------------

                              NUMBER OF TIME STEPS =     1

                               MULTIPLIER FOR DELT =     1.000

                            INITIAL TIME STEP SIZE =   1.000000    

 REUSING NON-PARAMETER RIVER REACHES FROM LAST STRESS PERIOD

      2 RIVER REACHES

                 RECHARGE =  1.233190E-03
 
 SOLVING FOR HEAD 

 OUTPUT CONTROL FOR STRESS PERIOD  198   TIME STEP    1
    SAVE HEAD FOR ALL LAYERS

 HEAD WILL BE SAVED ON UNIT   51 AT END OF TIME STEP    1, STRESS PERIOD  198
1
  VOLUMETRIC BUDGET FOR ENTIRE MODEL AT END OF TIME STEP    1, STRESS PERIOD 198
  ------------------------------------------------------------------------------

     CUMULATIVE VOLUMES      L**3       RATES FOR THIS TIME STEP      L**3/T
     ------------------                 ------------------------

           IN:                                      IN:
           ---                                      ---
             STORAGE =        1198.2018               STORAGE =           0.2940
       CONSTANT HEAD =           0.0000         CONSTANT HEAD =           0.0000
       RIVER LEAKAGE =          50.9076         RIVER LEAKAGE =           0.9844
            RECHARGE =        1378.9081              RECHARGE =          12.3319

            TOTAL IN =        2628.0176              TOTAL IN =          13.6103

          OUT:                                     OUT:
          ----                                     ----
             STORAGE =         547.7684               STORAGE =          10.4846
       CONSTANT HEAD =         658.0709         CONSTANT HEAD =           3.1258
       RIVER LEAKAGE =         763.1215         RIVER LEAKAGE =           0.0000
            RECHARGE =         659.0574              RECHARGE =           0.0000

           TOTAL OUT =        2628.0183             TOTAL OUT =          13.6104

            IN - OUT =      -7.3242E-04              IN - OUT =      -6.9618E-05

 PERCENT DISCREPANCY =          -0.00     PERCENT DISCREPANCY =          -0.00






         TIME SUMMARY AT END OF TIME STEP    1 IN STRESS PERIOD  198
                    SECONDS     MINUTES      HOURS       DAYS        YEARS
                    -----------------------------------------------------------
   TIME STEP LENGTH  86400.      1440.0      24.000      1.0000     2.73785E-03
 STRESS PERIOD TIME  86400.      1440.0      24.000      1.0000     2.73785E-03
         TOTAL TIME 1.71072E+07 2.85120E+05  4752.0      198.00     0.54209    
1
1
                            STRESS PERIOD NO.  199, LENGTH =   1.000000    
                            -----------------------------------------------

                              NUMBER OF TIME STEPS =     1

                               MULTIPLIER FOR DELT =     1.000

                            INITIAL TIME STEP SIZE =   1.000000    

 REUSING NON-PARAMETER RIVER REACHES FROM LAST STRESS PERIOD

      2 RIVER REACHES

                 RECHARGE = -9.866379E-04
 
 SOLVING FOR HEAD 

 OUTPUT CONTROL FOR STRESS PERIOD  199   TIME STEP    1
    SAVE HEAD FOR ALL LAYERS

 HEAD WILL BE SAVED ON UNIT   51 AT END OF TIME STEP    1, STRESS PERIOD  199
1
  VOLUMETRIC BUDGET FOR ENTIRE MODEL AT END OF TIME STEP    1, STRESS PERIOD 199
  ------------------------------------------------------------------------------

     CUMULATIVE VOLUMES      L**3       RATES FOR THIS TIME STEP      L**3/T
     ------------------                 ------------------------

           IN:                                      IN:
           ---                                      ---
             STORAGE =        1209.7448               STORAGE =          11.5429
       CONSTANT HEAD =           0.0000         CONSTANT HEAD =           0.0000
       RIVER LEAKAGE =          52.3527         RIVER LEAKAGE =           1.4452
            RECHARGE =        1378.9081              RECHARGE =           0.0000

            TOTAL IN =        2641.0054              TOTAL IN =          12.9881

          OUT:                                     OUT:
          ----                                     ----
             STORAGE =         547.7684               STORAGE =           0.0000
       CONSTANT HEAD =         661.1928         CONSTANT HEAD =           3.1219
       RIVER LEAKAGE =         763.1215         RIVER LEAKAGE =           0.0000
            RECHARGE =         668.9238              RECHARGE =           9.8664

           TOTAL OUT =        2641.0066             TOTAL OUT =          12.9883

            IN - OUT =      -1.2207E-03              IN - OUT =      -1.8501E-04

 PERCENT DISCREPANCY =          -0.00     PERCENT DISCREPANCY =          -0.00






         TIME SUMMARY AT END OF TIME STEP    1 IN STRESS PERIOD  199
                    SECONDS     MINUTES      HOURS       DAYS        YEARS
                    -----------------------------------------------------------
   TIME STEP LENGTH  86400.      1440.0      24.000      1.0000     2.73785E-03
 STRESS PERIOD TIME  86400.      1440.0      24.000      1.0000     2.73785E-03
         TOTAL TIME 1.71936E+07 2.86560E+05  4776.0      199.00     0.54483    
1
1
                            STRESS PERIOD NO.  200, LENGTH =   1.000000    
                            -----------------------------------------------

                              NUMBER OF TIME STEPS =     1

                               MULTIPLIER FOR DELT =     1.000

                            INITIAL TIME STEP SIZE =   1.000000    

 REUSING NON-PARAMETER RIVER REACHES FROM LAST STRESS PERIOD

      2 RIVER REACHES

                 RECHARGE =  1.681034E-04
 
 SOLVING FOR HEAD 

 OUTPUT CONTROL FOR STRESS PERIOD  200   TIME STEP    1
    SAVE HEAD FOR ALL LAYERS

 HEAD WILL BE SAVED ON UNIT   51 AT END OF TIME STEP    1, STRESS PERIOD  200
1
  VOLUMETRIC BUDGET FOR ENTIRE MODEL AT END OF TIME STEP    1, STRESS PERIOD 200
  ------------------------------------------------------------------------------

     CUMULATIVE VOLUMES      L**3       RATES FOR THIS TIME STEP      L**3/T
     ------------------                 ------------------------

           IN:                                      IN:
           ---                                      ---
             STORAGE =        1210.9658               STORAGE =           1.2210
       CONSTANT HEAD =           0.0000         CONSTANT HEAD =           0.0000
       RIVER LEAKAGE =          53.6362         RIVER LEAKAGE =           1.2835
            RECHARGE =        1380.5891              RECHARGE =           1.6810

            TOTAL IN =        2645.1912              TOTAL IN =           4.1856

          OUT:                                     OUT:
          ----                                     ----
             STORAGE =         548.8354               STORAGE =           1.0670
       CONSTANT HEAD =         664.3111         CONSTANT HEAD =           3.1183
       RIVER LEAKAGE =         763.1215         RIVER LEAKAGE =           0.0000
            RECHARGE =         668.9238              RECHARGE =           0.0000

           TOTAL OUT =        2645.1919             TOTAL OUT =           4.1854

            IN - OUT =      -7.3242E-04              IN - OUT =       2.0647E-04

 PERCENT DISCREPANCY =          -0.00     PERCENT DISCREPANCY =           0.00






         TIME SUMMARY AT END OF TIME STEP    1 IN STRESS PERIOD  200
                    SECONDS     MINUTES      HOURS       DAYS        YEARS
                    -----------------------------------------------------------
   TIME STEP LENGTH  86400.      1440.0      24.000      1.0000     2.73785E-03
 STRESS PERIOD TIME  86400.      1440.0      24.000      1.0000     2.73785E-03
         TOTAL TIME 1.72800E+07 2.88000E+05  4800.0      200.00     0.54757    
1
1
                            STRESS PERIOD NO.  201, LENGTH =   1.000000    
                            -----------------------------------------------

                              NUMBER OF TIME STEPS =     1

                               MULTIPLIER FOR DELT =     1.000

                            INITIAL TIME STEP SIZE =   1.000000    

 REUSING NON-PARAMETER RIVER REACHES FROM LAST STRESS PERIOD

      2 RIVER REACHES

                 RECHARGE = -1.184914E-03
 
 SOLVING FOR HEAD 

 OUTPUT CONTROL FOR STRESS PERIOD  201   TIME STEP    1
    SAVE HEAD FOR ALL LAYERS

 HEAD WILL BE SAVED ON UNIT   51 AT END OF TIME STEP    1, STRESS PERIOD  201
1
  VOLUMETRIC BUDGET FOR ENTIRE MODEL AT END OF TIME STEP    1, STRESS PERIOD 201
  ------------------------------------------------------------------------------

     CUMULATIVE VOLUMES      L**3       RATES FOR THIS TIME STEP      L**3/T
     ------------------                 ------------------------

           IN:                                      IN:
           ---                                      ---
             STORAGE =        1224.2546               STORAGE =          13.2888
       CONSTANT HEAD =           0.0000         CONSTANT HEAD =           0.0000
       RIVER LEAKAGE =          55.3107         RIVER LEAKAGE =           1.6744
            RECHARGE =        1380.5891              RECHARGE =           0.0000

            TOTAL IN =        2660.1543              TOTAL IN =          14.9632

          OUT:                                     OUT:
          ----                                     ----
             STORAGE =         548.8354               STORAGE =           0.0000
       CONSTANT HEAD =         667.4254         CONSTANT HEAD =           3.1143
       RIVER LEAKAGE =         763.1215         RIVER LEAKAGE =           0.0000
            RECHARGE =         680.7729              RECHARGE =          11.8491

           TOTAL OUT =        2660.1553             TOTAL OUT =          14.9634

            IN - OUT =      -9.7656E-04              IN - OUT =      -2.3842E-04

 PERCENT DISCREPANCY =          -0.00     PERCENT DISCREPANCY =          -0.00






         TIME SUMMARY AT END OF TIME STEP    1 IN STRESS PERIOD  201
                    SECONDS     MINUTES      HOURS       DAYS        YEARS
                    -----------------------------------------------------------
   TIME STEP LENGTH  86400.      1440.0      24.000      1.0000     2.73785E-03
 STRESS PERIOD TIME  86400.      1440.0      24.000      1.0000     2.73785E-03
         TOTAL TIME 1.73664E+07 2.89440E+05  4824.0      201.00     0.55031    
1
1
                            STRESS PERIOD NO.  202, LENGTH =   1.000000    
                            -----------------------------------------------

                              NUMBER OF TIME STEPS =     1

                               MULTIPLIER FOR DELT =     1.000

                            INITIAL TIME STEP SIZE =   1.000000    

 REUSING NON-PARAMETER RIVER REACHES FROM LAST STRESS PERIOD

      2 RIVER REACHES

                 RECHARGE = -8.577586E-04
 
 SOLVING FOR HEAD 

 OUTPUT CONTROL FOR STRESS PERIOD  202   TIME STEP    1
    SAVE HEAD FOR ALL LAYERS

 HEAD WILL BE SAVED ON UNIT   51 AT END OF TIME STEP    1, STRESS PERIOD  202
1
  VOLUMETRIC BUDGET FOR ENTIRE MODEL AT END OF TIME STEP    1, STRESS PERIOD 202
  ------------------------------------------------------------------------------

     CUMULATIVE VOLUMES      L**3       RATES FOR THIS TIME STEP      L**3/T
     ------------------                 ------------------------

           IN:                                      IN:
           ---                                      ---
             STORAGE =        1234.1458               STORAGE =           9.8911
       CONSTANT HEAD =           0.0000         CONSTANT HEAD =           0.0000
       RIVER LEAKAGE =          57.1077         RIVER LEAKAGE =           1.7971
            RECHARGE =        1380.5891              RECHARGE =           0.0000

            TOTAL IN =        2671.8425              TOTAL IN =          11.6881

          OUT:                                     OUT:
          ----                                     ----
             STORAGE =         548.8354               STORAGE =           0.0000
       CONSTANT HEAD =         670.5356         CONSTANT HEAD =           3.1102
       RIVER LEAKAGE =         763.1215         RIVER LEAKAGE =           0.0000
            RECHARGE =         689.3505              RECHARGE =           8.5776

           TOTAL OUT =        2671.8433             TOTAL OUT =          11.6878

            IN - OUT =      -7.3242E-04              IN - OUT =       2.7752E-04

 PERCENT DISCREPANCY =          -0.00     PERCENT DISCREPANCY =           0.00






         TIME SUMMARY AT END OF TIME STEP    1 IN STRESS PERIOD  202
                    SECONDS     MINUTES      HOURS       DAYS        YEARS
                    -----------------------------------------------------------
   TIME STEP LENGTH  86400.      1440.0      24.000      1.0000     2.73785E-03
 STRESS PERIOD TIME  86400.      1440.0      24.000      1.0000     2.73785E-03
         TOTAL TIME 1.74528E+07 2.90880E+05  4848.0      202.00     0.55305    
1
1
                            STRESS PERIOD NO.  203, LENGTH =   1.000000    
                            -----------------------------------------------

                              NUMBER OF TIME STEPS =     1

                               MULTIPLIER FOR DELT =     1.000

                            INITIAL TIME STEP SIZE =   1.000000    

 REUSING NON-PARAMETER RIVER REACHES FROM LAST STRESS PERIOD

      2 RIVER REACHES

                 RECHARGE = -1.284483E-04
 
 SOLVING FOR HEAD 

 OUTPUT CONTROL FOR STRESS PERIOD  203   TIME STEP    1
    SAVE HEAD FOR ALL LAYERS

 HEAD WILL BE SAVED ON UNIT   51 AT END OF TIME STEP    1, STRESS PERIOD  203
1
  VOLUMETRIC BUDGET FOR ENTIRE MODEL AT END OF TIME STEP    1, STRESS PERIOD 203
  ------------------------------------------------------------------------------

     CUMULATIVE VOLUMES      L**3       RATES FOR THIS TIME STEP      L**3/T
     ------------------                 ------------------------

           IN:                                      IN:
           ---                                      ---
             STORAGE =        1237.1552               STORAGE =           3.0093
       CONSTANT HEAD =           0.0000         CONSTANT HEAD =           0.0000
       RIVER LEAKAGE =          58.7617         RIVER LEAKAGE =           1.6540
            RECHARGE =        1380.5891              RECHARGE =           0.0000

            TOTAL IN =        2676.5059              TOTAL IN =           4.6633

          OUT:                                     OUT:
          ----                                     ----
             STORAGE =         549.1077               STORAGE =           0.2723
       CONSTANT HEAD =         673.6420         CONSTANT HEAD =           3.1064
       RIVER LEAKAGE =         763.1215         RIVER LEAKAGE =           0.0000
            RECHARGE =         690.6349              RECHARGE =           1.2845

           TOTAL OUT =        2676.5063             TOTAL OUT =           4.6631

            IN - OUT =      -4.8828E-04              IN - OUT =       1.5354E-04

 PERCENT DISCREPANCY =          -0.00     PERCENT DISCREPANCY =           0.00






         TIME SUMMARY AT END OF TIME STEP    1 IN STRESS PERIOD  203
                    SECONDS     MINUTES      HOURS       DAYS        YEARS
                    -----------------------------------------------------------
   TIME STEP LENGTH  86400.      1440.0      24.000      1.0000     2.73785E-03
 STRESS PERIOD TIME  86400.      1440.0      24.000      1.0000     2.73785E-03
         TOTAL TIME 1.75392E+07 2.92320E+05  4872.0      203.00     0.55578    
1
1
                            STRESS PERIOD NO.  204, LENGTH =   1.000000    
                            -----------------------------------------------

                              NUMBER OF TIME STEPS =     1

                               MULTIPLIER FOR DELT =     1.000

                            INITIAL TIME STEP SIZE =   1.000000    

 REUSING NON-PARAMETER RIVER REACHES FROM LAST STRESS PERIOD

      2 RIVER REACHES

                 RECHARGE = -4.456897E-04
 
 SOLVING FOR HEAD 

 OUTPUT CONTROL FOR STRESS PERIOD  204   TIME STEP    1
    SAVE HEAD FOR ALL LAYERS

 HEAD WILL BE SAVED ON UNIT   51 AT END OF TIME STEP    1, STRESS PERIOD  204
1
  VOLUMETRIC BUDGET FOR ENTIRE MODEL AT END OF TIME STEP    1, STRESS PERIOD 204
  ------------------------------------------------------------------------------

     CUMULATIVE VOLUMES      L**3       RATES FOR THIS TIME STEP      L**3/T
     ------------------                 ------------------------

           IN:                                      IN:
           ---                                      ---
             STORAGE =        1243.0105               STORAGE =           5.8553
       CONSTANT HEAD =           0.0000         CONSTANT HEAD =           0.0000
       RIVER LEAKAGE =          60.4658         RIVER LEAKAGE =           1.7041
            RECHARGE =        1380.5891              RECHARGE =           0.0000

            TOTAL IN =        2684.0654              TOTAL IN =           7.5595

          OUT:                                     OUT:
          ----                                     ----
             STORAGE =         549.1077               STORAGE =           0.0000
       CONSTANT HEAD =         676.7446         CONSTANT HEAD =           3.1025
       RIVER LEAKAGE =         763.1215         RIVER LEAKAGE =           0.0000
            RECHARGE =         695.0919              RECHARGE =           4.4569

           TOTAL OUT =        2684.0657             TOTAL OUT =           7.5594

            IN - OUT =      -2.4414E-04              IN - OUT =       6.6757E-05

 PERCENT DISCREPANCY =          -0.00     PERCENT DISCREPANCY =           0.00






         TIME SUMMARY AT END OF TIME STEP    1 IN STRESS PERIOD  204
                    SECONDS     MINUTES      HOURS       DAYS        YEARS
                    -----------------------------------------------------------
   TIME STEP LENGTH  86400.      1440.0      24.000      1.0000     2.73785E-03
 STRESS PERIOD TIME  86400.      1440.0      24.000      1.0000     2.73785E-03
         TOTAL TIME 1.76256E+07 2.93760E+05  4896.0      204.00     0.55852    
1
1
                            STRESS PERIOD NO.  205, LENGTH =   1.000000    
                            -----------------------------------------------

                              NUMBER OF TIME STEPS =     1

                               MULTIPLIER FOR DELT =     1.000

                            INITIAL TIME STEP SIZE =   1.000000    

 REUSING NON-PARAMETER RIVER REACHES FROM LAST STRESS PERIOD

      2 RIVER REACHES

                 RECHARGE =  4.948276E-04
 
 SOLVING FOR HEAD 

 OUTPUT CONTROL FOR STRESS PERIOD  205   TIME STEP    1
    SAVE HEAD FOR ALL LAYERS

 HEAD WILL BE SAVED ON UNIT   51 AT END OF TIME STEP    1, STRESS PERIOD  205
1
  VOLUMETRIC BUDGET FOR ENTIRE MODEL AT END OF TIME STEP    1, STRESS PERIOD 205
  ------------------------------------------------------------------------------

     CUMULATIVE VOLUMES      L**3       RATES FOR THIS TIME STEP      L**3/T
     ------------------                 ------------------------

           IN:                                      IN:
           ---                                      ---
             STORAGE =        1243.3016               STORAGE =           0.2912
       CONSTANT HEAD =           0.0000         CONSTANT HEAD =           0.0000
       RIVER LEAKAGE =          61.8778         RIVER LEAKAGE =           1.4120
            RECHARGE =        1385.5374              RECHARGE =           4.9483

            TOTAL IN =        2690.7168              TOTAL IN =           6.6514

          OUT:                                     OUT:
          ----                                     ----
             STORAGE =         552.6601               STORAGE =           3.5523
       CONSTANT HEAD =         679.8435         CONSTANT HEAD =           3.0989
       RIVER LEAKAGE =         763.1215         RIVER LEAKAGE =           0.0000
            RECHARGE =         695.0919              RECHARGE =           0.0000

           TOTAL OUT =        2690.7170             TOTAL OUT =           6.6513

            IN - OUT =      -2.4414E-04              IN - OUT =       1.5545E-04

 PERCENT DISCREPANCY =          -0.00     PERCENT DISCREPANCY =           0.00






         TIME SUMMARY AT END OF TIME STEP    1 IN STRESS PERIOD  205
                    SECONDS     MINUTES      HOURS       DAYS        YEARS
                    -----------------------------------------------------------
   TIME STEP LENGTH  86400.      1440.0      24.000      1.0000     2.73785E-03
 STRESS PERIOD TIME  86400.      1440.0      24.000      1.0000     2.73785E-03
         TOTAL TIME 1.77120E+07 2.95200E+05  4920.0      205.00     0.56126    
1
1
                            STRESS PERIOD NO.  206, LENGTH =   1.000000    
                            -----------------------------------------------

                              NUMBER OF TIME STEPS =     1

                               MULTIPLIER FOR DELT =     1.000

                            INITIAL TIME STEP SIZE =   1.000000    

 REUSING NON-PARAMETER RIVER REACHES FROM LAST STRESS PERIOD

      2 RIVER REACHES

                 RECHARGE = -1.037069E-03
 
 SOLVING FOR HEAD 

 OUTPUT CONTROL FOR STRESS PERIOD  206   TIME STEP    1
    SAVE HEAD FOR ALL LAYERS

 HEAD WILL BE SAVED ON UNIT   51 AT END OF TIME STEP    1, STRESS PERIOD  206
1
  VOLUMETRIC BUDGET FOR ENTIRE MODEL AT END OF TIME STEP    1, STRESS PERIOD 206
  ------------------------------------------------------------------------------

     CUMULATIVE VOLUMES      L**3       RATES FOR THIS TIME STEP      L**3/T
     ------------------                 ------------------------

           IN:                                      IN:
           ---                                      ---
             STORAGE =        1254.9946               STORAGE =          11.6929
       CONSTANT HEAD =           0.0000         CONSTANT HEAD =           0.0000
       RIVER LEAKAGE =          63.6506         RIVER LEAKAGE =           1.7728
            RECHARGE =        1385.5374              RECHARGE =           0.0000

            TOTAL IN =        2704.1826              TOTAL IN =          13.4658

          OUT:                                     OUT:
          ----                                     ----
             STORAGE =         552.6601               STORAGE =           0.0000
       CONSTANT HEAD =         682.9385         CONSTANT HEAD =           3.0950
       RIVER LEAKAGE =         763.1215         RIVER LEAKAGE =           0.0000
            RECHARGE =         705.4625              RECHARGE =          10.3707

           TOTAL OUT =        2704.1826             TOTAL OUT =          13.4657

            IN - OUT =           0.0000              IN - OUT =       6.4850E-05

 PERCENT DISCREPANCY =           0.00     PERCENT DISCREPANCY =           0.00






         TIME SUMMARY AT END OF TIME STEP    1 IN STRESS PERIOD  206
                    SECONDS     MINUTES      HOURS       DAYS        YEARS
                    -----------------------------------------------------------
   TIME STEP LENGTH  86400.      1440.0      24.000      1.0000     2.73785E-03
 STRESS PERIOD TIME  86400.      1440.0      24.000      1.0000     2.73785E-03
         TOTAL TIME 1.77984E+07 2.96640E+05  4944.0      206.00     0.56400    
1
1
                            STRESS PERIOD NO.  207, LENGTH =   1.000000    
                            -----------------------------------------------

                              NUMBER OF TIME STEPS =     1

                               MULTIPLIER FOR DELT =     1.000

                            INITIAL TIME STEP SIZE =   1.000000    

 REUSING NON-PARAMETER RIVER REACHES FROM LAST STRESS PERIOD

      2 RIVER REACHES

                 RECHARGE = -6.150862E-04
 
 SOLVING FOR HEAD 

 OUTPUT CONTROL FOR STRESS PERIOD  207   TIME STEP    1
    SAVE HEAD FOR ALL LAYERS

 HEAD WILL BE SAVED ON UNIT   51 AT END OF TIME STEP    1, STRESS PERIOD  207
1
  VOLUMETRIC BUDGET FOR ENTIRE MODEL AT END OF TIME STEP    1, STRESS PERIOD 207
  ------------------------------------------------------------------------------

     CUMULATIVE VOLUMES      L**3       RATES FOR THIS TIME STEP      L**3/T
     ------------------                 ------------------------

           IN:                                      IN:
           ---                                      ---
             STORAGE =        1262.4062               STORAGE =           7.4117
       CONSTANT HEAD =           0.0000         CONSTANT HEAD =           0.0000
       RIVER LEAKAGE =          65.4808         RIVER LEAKAGE =           1.8302
            RECHARGE =        1385.5374              RECHARGE =           0.0000

            TOTAL IN =        2713.4243              TOTAL IN =           9.2418

          OUT:                                     OUT:
          ----                                     ----
             STORAGE =         552.6601               STORAGE =           0.0000
       CONSTANT HEAD =         686.0296         CONSTANT HEAD =           3.0911
       RIVER LEAKAGE =         763.1215         RIVER LEAKAGE =           0.0000
            RECHARGE =         711.6134              RECHARGE =           6.1509

           TOTAL OUT =        2713.4248             TOTAL OUT =           9.2419

            IN - OUT =      -4.8828E-04              IN - OUT =      -8.4877E-05

 PERCENT DISCREPANCY =          -0.00     PERCENT DISCREPANCY =          -0.00






         TIME SUMMARY AT END OF TIME STEP    1 IN STRESS PERIOD  207
                    SECONDS     MINUTES      HOURS       DAYS        YEARS
                    -----------------------------------------------------------
   TIME STEP LENGTH  86400.      1440.0      24.000      1.0000     2.73785E-03
 STRESS PERIOD TIME  86400.      1440.0      24.000      1.0000     2.73785E-03
         TOTAL TIME 1.78848E+07 2.98080E+05  4968.0      207.00     0.56674    
1
1
                            STRESS PERIOD NO.  208, LENGTH =   1.000000    
                            -----------------------------------------------

                              NUMBER OF TIME STEPS =     1

                               MULTIPLIER FOR DELT =     1.000

                            INITIAL TIME STEP SIZE =   1.000000    

 REUSING NON-PARAMETER RIVER REACHES FROM LAST STRESS PERIOD

      2 RIVER REACHES

                 RECHARGE =  6.025862E-04
 
 SOLVING FOR HEAD 

 OUTPUT CONTROL FOR STRESS PERIOD  208   TIME STEP    1
    SAVE HEAD FOR ALL LAYERS

 HEAD WILL BE SAVED ON UNIT   51 AT END OF TIME STEP    1, STRESS PERIOD  208
1
  VOLUMETRIC BUDGET FOR ENTIRE MODEL AT END OF TIME STEP    1, STRESS PERIOD 208
  ------------------------------------------------------------------------------

     CUMULATIVE VOLUMES      L**3       RATES FOR THIS TIME STEP      L**3/T
     ------------------                 ------------------------

           IN:                                      IN:
           ---                                      ---
             STORAGE =        1262.6946               STORAGE =           0.2884
       CONSTANT HEAD =           0.0000         CONSTANT HEAD =           0.0000
       RIVER LEAKAGE =          66.9495         RIVER LEAKAGE =           1.4687
            RECHARGE =        1391.5632              RECHARGE =           6.0259

            TOTAL IN =        2721.2073              TOTAL IN =           7.7829

          OUT:                                     OUT:
          ----                                     ----
             STORAGE =         557.3553               STORAGE =           4.6953
       CONSTANT HEAD =         689.1171         CONSTANT HEAD =           3.0875
       RIVER LEAKAGE =         763.1215         RIVER LEAKAGE =           0.0000
            RECHARGE =         711.6134              RECHARGE =           0.0000

           TOTAL OUT =        2721.2075             TOTAL OUT =           7.7828

            IN - OUT =      -2.4414E-04              IN - OUT =       1.1492E-04

 PERCENT DISCREPANCY =          -0.00     PERCENT DISCREPANCY =           0.00






         TIME SUMMARY AT END OF TIME STEP    1 IN STRESS PERIOD  208
                    SECONDS     MINUTES      HOURS       DAYS        YEARS
                    -----------------------------------------------------------
   TIME STEP LENGTH  86400.      1440.0      24.000      1.0000     2.73785E-03
 STRESS PERIOD TIME  86400.      1440.0      24.000      1.0000     2.73785E-03
         TOTAL TIME 1.79712E+07 2.99520E+05  4992.0      208.00     0.56947    
1
1
                            STRESS PERIOD NO.  209, LENGTH =   1.000000    
                            -----------------------------------------------

                              NUMBER OF TIME STEPS =     1

                               MULTIPLIER FOR DELT =     1.000

                            INITIAL TIME STEP SIZE =   1.000000    

 REUSING NON-PARAMETER RIVER REACHES FROM LAST STRESS PERIOD

      2 RIVER REACHES

                 RECHARGE = -2.392241E-04
 
 SOLVING FOR HEAD 

 OUTPUT CONTROL FOR STRESS PERIOD  209   TIME STEP    1
    SAVE HEAD FOR ALL LAYERS

 HEAD WILL BE SAVED ON UNIT   51 AT END OF TIME STEP    1, STRESS PERIOD  209
1
  VOLUMETRIC BUDGET FOR ENTIRE MODEL AT END OF TIME STEP    1, STRESS PERIOD 209
  ------------------------------------------------------------------------------

     CUMULATIVE VOLUMES      L**3       RATES FOR THIS TIME STEP      L**3/T
     ------------------                 ------------------------

           IN:                                      IN:
           ---                                      ---
             STORAGE =        1266.6152               STORAGE =           3.9207
       CONSTANT HEAD =           0.0000         CONSTANT HEAD =           0.0000
       RIVER LEAKAGE =          68.5050         RIVER LEAKAGE =           1.5555
            RECHARGE =        1391.5632              RECHARGE =           0.0000

            TOTAL IN =        2726.6836              TOTAL IN =           5.4762

          OUT:                                     OUT:
          ----                                     ----
             STORAGE =         557.3553               STORAGE =           0.0000
       CONSTANT HEAD =         692.2010         CONSTANT HEAD =           3.0839
       RIVER LEAKAGE =         763.1215         RIVER LEAKAGE =           0.0000
            RECHARGE =         714.0056              RECHARGE =           2.3922

           TOTAL OUT =        2726.6836             TOTAL OUT =           5.4761

            IN - OUT =           0.0000              IN - OUT =       1.5259E-05

 PERCENT DISCREPANCY =           0.00     PERCENT DISCREPANCY =           0.00






         TIME SUMMARY AT END OF TIME STEP    1 IN STRESS PERIOD  209
                    SECONDS     MINUTES      HOURS       DAYS        YEARS
                    -----------------------------------------------------------
   TIME STEP LENGTH  86400.      1440.0      24.000      1.0000     2.73785E-03
 STRESS PERIOD TIME  86400.      1440.0      24.000      1.0000     2.73785E-03
         TOTAL TIME 1.80576E+07 3.00960E+05  5016.0      209.00     0.57221    
1
1
                            STRESS PERIOD NO.  210, LENGTH =   1.000000    
                            -----------------------------------------------

                              NUMBER OF TIME STEPS =     1

                               MULTIPLIER FOR DELT =     1.000

                            INITIAL TIME STEP SIZE =   1.000000    

 REUSING NON-PARAMETER RIVER REACHES FROM LAST STRESS PERIOD

      2 RIVER REACHES

                 RECHARGE = -2.000000E-04
 
 SOLVING FOR HEAD 

 OUTPUT CONTROL FOR STRESS PERIOD  210   TIME STEP    1
    SAVE HEAD FOR ALL LAYERS

 HEAD WILL BE SAVED ON UNIT   51 AT END OF TIME STEP    1, STRESS PERIOD  210
1
  VOLUMETRIC BUDGET FOR ENTIRE MODEL AT END OF TIME STEP    1, STRESS PERIOD 210
  ------------------------------------------------------------------------------

     CUMULATIVE VOLUMES      L**3       RATES FOR THIS TIME STEP      L**3/T
     ------------------                 ------------------------

           IN:                                      IN:
           ---                                      ---
             STORAGE =        1270.1217               STORAGE =           3.5065
       CONSTANT HEAD =           0.0000         CONSTANT HEAD =           0.0000
       RIVER LEAKAGE =          70.0786         RIVER LEAKAGE =           1.5737
            RECHARGE =        1391.5632              RECHARGE =           0.0000

            TOTAL IN =        2731.7637              TOTAL IN =           5.0801

          OUT:                                     OUT:
          ----                                     ----
             STORAGE =         557.3553               STORAGE =           0.0000
       CONSTANT HEAD =         695.2813         CONSTANT HEAD =           3.0803
       RIVER LEAKAGE =         763.1215         RIVER LEAKAGE =           0.0000
            RECHARGE =         716.0056              RECHARGE =           2.0000

           TOTAL OUT =        2731.7639             TOTAL OUT =           5.0803

            IN - OUT =      -2.4414E-04              IN - OUT =      -1.3971E-04

 PERCENT DISCREPANCY =          -0.00     PERCENT DISCREPANCY =          -0.00






         TIME SUMMARY AT END OF TIME STEP    1 IN STRESS PERIOD  210
                    SECONDS     MINUTES      HOURS       DAYS        YEARS
                    -----------------------------------------------------------
   TIME STEP LENGTH  86400.      1440.0      24.000      1.0000     2.73785E-03
 STRESS PERIOD TIME  86400.      1440.0      24.000      1.0000     2.73785E-03
         TOTAL TIME 1.81440E+07 3.02400E+05  5040.0      210.00     0.57495    
1
1
                            STRESS PERIOD NO.  211, LENGTH =   1.000000    
                            -----------------------------------------------

                              NUMBER OF TIME STEPS =     1

                               MULTIPLIER FOR DELT =     1.000

                            INITIAL TIME STEP SIZE =   1.000000    

 REUSING NON-PARAMETER RIVER REACHES FROM LAST STRESS PERIOD

      2 RIVER REACHES

                 RECHARGE =  3.448276E-04
 
 SOLVING FOR HEAD 

 OUTPUT CONTROL FOR STRESS PERIOD  211   TIME STEP    1
    SAVE HEAD FOR ALL LAYERS

 HEAD WILL BE SAVED ON UNIT   51 AT END OF TIME STEP    1, STRESS PERIOD  211
1
  VOLUMETRIC BUDGET FOR ENTIRE MODEL AT END OF TIME STEP    1, STRESS PERIOD 211
  ------------------------------------------------------------------------------

     CUMULATIVE VOLUMES      L**3       RATES FOR THIS TIME STEP      L**3/T
     ------------------                 ------------------------

           IN:                                      IN:
           ---                                      ---
             STORAGE =        1270.4696               STORAGE =           0.3479
       CONSTANT HEAD =           0.0000         CONSTANT HEAD =           0.0000
       RIVER LEAKAGE =          71.4740         RIVER LEAKAGE =           1.3954
            RECHARGE =        1395.0115              RECHARGE =           3.4483

            TOTAL IN =        2736.9551              TOTAL IN =           5.1915

          OUT:                                     OUT:
          ----                                     ----
             STORAGE =         559.4702               STORAGE =           2.1149
       CONSTANT HEAD =         698.3582         CONSTANT HEAD =           3.0768
       RIVER LEAKAGE =         763.1215         RIVER LEAKAGE =           0.0000
            RECHARGE =         716.0056              RECHARGE =           0.0000

           TOTAL OUT =        2736.9556             TOTAL OUT =           5.1917

            IN - OUT =      -4.8828E-04              IN - OUT =      -2.0742E-04

 PERCENT DISCREPANCY =          -0.00     PERCENT DISCREPANCY =          -0.00






         TIME SUMMARY AT END OF TIME STEP    1 IN STRESS PERIOD  211
                    SECONDS     MINUTES      HOURS       DAYS        YEARS
                    -----------------------------------------------------------
   TIME STEP LENGTH  86400.      1440.0      24.000      1.0000     2.73785E-03
 STRESS PERIOD TIME  86400.      1440.0      24.000      1.0000     2.73785E-03
         TOTAL TIME 1.82304E+07 3.03840E+05  5064.0      211.00     0.57769    
1
1
                            STRESS PERIOD NO.  212, LENGTH =   1.000000    
                            -----------------------------------------------

                              NUMBER OF TIME STEPS =     1

                               MULTIPLIER FOR DELT =     1.000

                            INITIAL TIME STEP SIZE =   1.000000    

 REUSING NON-PARAMETER RIVER REACHES FROM LAST STRESS PERIOD

      2 RIVER REACHES

                 RECHARGE = -6.017241E-04
 
 SOLVING FOR HEAD 

 OUTPUT CONTROL FOR STRESS PERIOD  212   TIME STEP    1
    SAVE HEAD FOR ALL LAYERS

 HEAD WILL BE SAVED ON UNIT   51 AT END OF TIME STEP    1, STRESS PERIOD  212
1
  VOLUMETRIC BUDGET FOR ENTIRE MODEL AT END OF TIME STEP    1, STRESS PERIOD 212
  ------------------------------------------------------------------------------

     CUMULATIVE VOLUMES      L**3       RATES FOR THIS TIME STEP      L**3/T
     ------------------                 ------------------------

           IN:                                      IN:
           ---                                      ---
             STORAGE =        1277.9443               STORAGE =           7.4747
       CONSTANT HEAD =           0.0000         CONSTANT HEAD =           0.0000
       RIVER LEAKAGE =          73.0897         RIVER LEAKAGE =           1.6157
            RECHARGE =        1395.0115              RECHARGE =           0.0000

            TOTAL IN =        2746.0454              TOTAL IN =           9.0904

          OUT:                                     OUT:
          ----                                     ----
             STORAGE =         559.4702               STORAGE =           0.0000
       CONSTANT HEAD =         701.4313         CONSTANT HEAD =           3.0732
       RIVER LEAKAGE =         763.1215         RIVER LEAKAGE =           0.0000
            RECHARGE =         722.0228              RECHARGE =           6.0172

           TOTAL OUT =        2746.0459             TOTAL OUT =           9.0904

            IN - OUT =      -4.8828E-04              IN - OUT =      -3.1471E-05

 PERCENT DISCREPANCY =          -0.00     PERCENT DISCREPANCY =          -0.00






         TIME SUMMARY AT END OF TIME STEP    1 IN STRESS PERIOD  212
                    SECONDS     MINUTES      HOURS       DAYS        YEARS
                    -----------------------------------------------------------
   TIME STEP LENGTH  86400.      1440.0      24.000      1.0000     2.73785E-03
 STRESS PERIOD TIME  86400.      1440.0      24.000      1.0000     2.73785E-03
         TOTAL TIME 1.83168E+07 3.05280E+05  5088.0      212.00     0.58042    
1
1
                            STRESS PERIOD NO.  213, LENGTH =   1.000000    
                            -----------------------------------------------

                              NUMBER OF TIME STEPS =     1

                               MULTIPLIER FOR DELT =     1.000

                            INITIAL TIME STEP SIZE =   1.000000    

 REUSING NON-PARAMETER RIVER REACHES FROM LAST STRESS PERIOD

      2 RIVER REACHES

                 RECHARGE =  2.745690E-04
 
 SOLVING FOR HEAD 

 OUTPUT CONTROL FOR STRESS PERIOD  213   TIME STEP    1
    SAVE HEAD FOR ALL LAYERS

 HEAD WILL BE SAVED ON UNIT   51 AT END OF TIME STEP    1, STRESS PERIOD  213
1
  VOLUMETRIC BUDGET FOR ENTIRE MODEL AT END OF TIME STEP    1, STRESS PERIOD 213
  ------------------------------------------------------------------------------

     CUMULATIVE VOLUMES      L**3       RATES FOR THIS TIME STEP      L**3/T
     ------------------                 ------------------------

           IN:                                      IN:
           ---                                      ---
             STORAGE =        1278.4495               STORAGE =           0.5052
       CONSTANT HEAD =           0.0000         CONSTANT HEAD =           0.0000
       RIVER LEAKAGE =          74.5228         RIVER LEAKAGE =           1.4330
            RECHARGE =        1397.7572              RECHARGE =           2.7457

            TOTAL IN =        2750.7295              TOTAL IN =           4.6839

          OUT:                                     OUT:
          ----                                     ----
             STORAGE =         561.0844               STORAGE =           1.6141
       CONSTANT HEAD =         704.5011         CONSTANT HEAD =           3.0698
       RIVER LEAKAGE =         763.1215         RIVER LEAKAGE =           0.0000
            RECHARGE =         722.0228              RECHARGE =           0.0000

           TOTAL OUT =        2750.7300             TOTAL OUT =           4.6839

            IN - OUT =      -4.8828E-04              IN - OUT =       4.0531E-05

 PERCENT DISCREPANCY =          -0.00     PERCENT DISCREPANCY =           0.00






         TIME SUMMARY AT END OF TIME STEP    1 IN STRESS PERIOD  213
                    SECONDS     MINUTES      HOURS       DAYS        YEARS
                    -----------------------------------------------------------
   TIME STEP LENGTH  86400.      1440.0      24.000      1.0000     2.73785E-03
 STRESS PERIOD TIME  86400.      1440.0      24.000      1.0000     2.73785E-03
         TOTAL TIME 1.84032E+07 3.06720E+05  5112.0      213.00     0.58316    
1
1
                            STRESS PERIOD NO.  214, LENGTH =   1.000000    
                            -----------------------------------------------

                              NUMBER OF TIME STEPS =     1

                               MULTIPLIER FOR DELT =     1.000

                            INITIAL TIME STEP SIZE =   1.000000    

 REUSING NON-PARAMETER RIVER REACHES FROM LAST STRESS PERIOD

      2 RIVER REACHES

                 RECHARGE = -1.400862E-04
 
 SOLVING FOR HEAD 

 OUTPUT CONTROL FOR STRESS PERIOD  214   TIME STEP    1
    SAVE HEAD FOR ALL LAYERS

 HEAD WILL BE SAVED ON UNIT   51 AT END OF TIME STEP    1, STRESS PERIOD  214
1
  VOLUMETRIC BUDGET FOR ENTIRE MODEL AT END OF TIME STEP    1, STRESS PERIOD 214
  ------------------------------------------------------------------------------

     CUMULATIVE VOLUMES      L**3       RATES FOR THIS TIME STEP      L**3/T
     ------------------                 ------------------------

           IN:                                      IN:
           ---                                      ---
             STORAGE =        1281.4388               STORAGE =           2.9894
       CONSTANT HEAD =           0.0000         CONSTANT HEAD =           0.0000
       RIVER LEAKAGE =          76.0006         RIVER LEAKAGE =           1.4779
            RECHARGE =        1397.7572              RECHARGE =           0.0000

            TOTAL IN =        2755.1968              TOTAL IN =           4.4673

          OUT:                                     OUT:
          ----                                     ----
             STORAGE =         561.0844               STORAGE =           0.0000
       CONSTANT HEAD =         707.5674         CONSTANT HEAD =           3.0663
       RIVER LEAKAGE =         763.1215         RIVER LEAKAGE =           0.0000
            RECHARGE =         723.4237              RECHARGE =           1.4009

           TOTAL OUT =        2755.1968             TOTAL OUT =           4.4672

            IN - OUT =           0.0000              IN - OUT =       1.0490E-04

 PERCENT DISCREPANCY =           0.00     PERCENT DISCREPANCY =           0.00






         TIME SUMMARY AT END OF TIME STEP    1 IN STRESS PERIOD  214
                    SECONDS     MINUTES      HOURS       DAYS        YEARS
                    -----------------------------------------------------------
   TIME STEP LENGTH  86400.      1440.0      24.000      1.0000     2.73785E-03
 STRESS PERIOD TIME  86400.      1440.0      24.000      1.0000     2.73785E-03
         TOTAL TIME 1.84896E+07 3.08160E+05  5136.0      214.00     0.58590    
1
1
                            STRESS PERIOD NO.  215, LENGTH =   1.000000    
                            -----------------------------------------------

                              NUMBER OF TIME STEPS =     1

                               MULTIPLIER FOR DELT =     1.000

                            INITIAL TIME STEP SIZE =   1.000000    

 REUSING NON-PARAMETER RIVER REACHES FROM LAST STRESS PERIOD

      2 RIVER REACHES

                 RECHARGE = -5.969828E-04
 
 SOLVING FOR HEAD 

 OUTPUT CONTROL FOR STRESS PERIOD  215   TIME STEP    1
    SAVE HEAD FOR ALL LAYERS

 HEAD WILL BE SAVED ON UNIT   51 AT END OF TIME STEP    1, STRESS PERIOD  215
1
  VOLUMETRIC BUDGET FOR ENTIRE MODEL AT END OF TIME STEP    1, STRESS PERIOD 215
  ------------------------------------------------------------------------------

     CUMULATIVE VOLUMES      L**3       RATES FOR THIS TIME STEP      L**3/T
     ------------------                 ------------------------

           IN:                                      IN:
           ---                                      ---
             STORAGE =        1288.8171               STORAGE =           7.3783
       CONSTANT HEAD =           0.0000         CONSTANT HEAD =           0.0000
       RIVER LEAKAGE =          77.6550         RIVER LEAKAGE =           1.6544
            RECHARGE =        1397.7572              RECHARGE =           0.0000

            TOTAL IN =        2764.2295              TOTAL IN =           9.0327

          OUT:                                     OUT:
          ----                                     ----
             STORAGE =         561.0844               STORAGE =           0.0000
       CONSTANT HEAD =         710.6301         CONSTANT HEAD =           3.0627
       RIVER LEAKAGE =         763.1215         RIVER LEAKAGE =           0.0000
            RECHARGE =         729.3936              RECHARGE =           5.9698

           TOTAL OUT =        2764.2295             TOTAL OUT =           9.0325

            IN - OUT =           0.0000              IN - OUT =       2.0218E-04

 PERCENT DISCREPANCY =           0.00     PERCENT DISCREPANCY =           0.00






         TIME SUMMARY AT END OF TIME STEP    1 IN STRESS PERIOD  215
                    SECONDS     MINUTES      HOURS       DAYS        YEARS
                    -----------------------------------------------------------
   TIME STEP LENGTH  86400.      1440.0      24.000      1.0000     2.73785E-03
 STRESS PERIOD TIME  86400.      1440.0      24.000      1.0000     2.73785E-03
         TOTAL TIME 1.85760E+07 3.09600E+05  5160.0      215.00     0.58864    
1
1
                            STRESS PERIOD NO.  216, LENGTH =   1.000000    
                            -----------------------------------------------

                              NUMBER OF TIME STEPS =     1

                               MULTIPLIER FOR DELT =     1.000

                            INITIAL TIME STEP SIZE =   1.000000    

 REUSING NON-PARAMETER RIVER REACHES FROM LAST STRESS PERIOD

      2 RIVER REACHES

                 RECHARGE = -4.077586E-04
 
 SOLVING FOR HEAD 

 OUTPUT CONTROL FOR STRESS PERIOD  216   TIME STEP    1
    SAVE HEAD FOR ALL LAYERS

 HEAD WILL BE SAVED ON UNIT   51 AT END OF TIME STEP    1, STRESS PERIOD  216
1
  VOLUMETRIC BUDGET FOR ENTIRE MODEL AT END OF TIME STEP    1, STRESS PERIOD 216
  ------------------------------------------------------------------------------

     CUMULATIVE VOLUMES      L**3       RATES FOR THIS TIME STEP      L**3/T
     ------------------                 ------------------------

           IN:                                      IN:
           ---                                      ---
             STORAGE =        1294.2551               STORAGE =           5.4380
       CONSTANT HEAD =           0.0000         CONSTANT HEAD =           0.0000
       RIVER LEAKAGE =          79.3535         RIVER LEAKAGE =           1.6986
            RECHARGE =        1397.7572              RECHARGE =           0.0000

            TOTAL IN =        2771.3657              TOTAL IN =           7.1365

          OUT:                                     OUT:
          ----                                     ----
             STORAGE =         561.0844               STORAGE =           0.0000
       CONSTANT HEAD =         713.6891         CONSTANT HEAD =           3.0591
       RIVER LEAKAGE =         763.1215         RIVER LEAKAGE =           0.0000
            RECHARGE =         733.4711              RECHARGE =           4.0776

           TOTAL OUT =        2771.3662             TOTAL OUT =           7.1366

            IN - OUT =      -4.8828E-04              IN - OUT =      -1.1873E-04

 PERCENT DISCREPANCY =          -0.00     PERCENT DISCREPANCY =          -0.00






         TIME SUMMARY AT END OF TIME STEP    1 IN STRESS PERIOD  216
                    SECONDS     MINUTES      HOURS       DAYS        YEARS
                    -----------------------------------------------------------
   TIME STEP LENGTH  86400.      1440.0      24.000      1.0000     2.73785E-03
 STRESS PERIOD TIME  86400.      1440.0      24.000      1.0000     2.73785E-03
         TOTAL TIME 1.86624E+07 3.11040E+05  5184.0      216.00     0.59138    
1
1
                            STRESS PERIOD NO.  217, LENGTH =   1.000000    
                            -----------------------------------------------

                              NUMBER OF TIME STEPS =     1

                               MULTIPLIER FOR DELT =     1.000

                            INITIAL TIME STEP SIZE =   1.000000    

 REUSING NON-PARAMETER RIVER REACHES FROM LAST STRESS PERIOD

      2 RIVER REACHES

                 RECHARGE = -4.228448E-04
 
 SOLVING FOR HEAD 

 OUTPUT CONTROL FOR STRESS PERIOD  217   TIME STEP    1
    SAVE HEAD FOR ALL LAYERS

 HEAD WILL BE SAVED ON UNIT   51 AT END OF TIME STEP    1, STRESS PERIOD  217
1
  VOLUMETRIC BUDGET FOR ENTIRE MODEL AT END OF TIME STEP    1, STRESS PERIOD 217
  ------------------------------------------------------------------------------

     CUMULATIVE VOLUMES      L**3       RATES FOR THIS TIME STEP      L**3/T
     ------------------                 ------------------------

           IN:                                      IN:
           ---                                      ---
             STORAGE =        1299.7909               STORAGE =           5.5358
       CONSTANT HEAD =           0.0000         CONSTANT HEAD =           0.0000
       RIVER LEAKAGE =          81.1018         RIVER LEAKAGE =           1.7482
            RECHARGE =        1397.7572              RECHARGE =           0.0000

            TOTAL IN =        2778.6499              TOTAL IN =           7.2840

          OUT:                                     OUT:
          ----                                     ----
             STORAGE =         561.0844               STORAGE =           0.0000
       CONSTANT HEAD =         716.7446         CONSTANT HEAD =           3.0554
       RIVER LEAKAGE =         763.1215         RIVER LEAKAGE =           0.0000
            RECHARGE =         737.6996              RECHARGE =           4.2284

           TOTAL OUT =        2778.6499             TOTAL OUT =           7.2839

            IN - OUT =           0.0000              IN - OUT =       1.4257E-04

 PERCENT DISCREPANCY =           0.00     PERCENT DISCREPANCY =           0.00






         TIME SUMMARY AT END OF TIME STEP    1 IN STRESS PERIOD  217
                    SECONDS     MINUTES      HOURS       DAYS        YEARS
                    -----------------------------------------------------------
   TIME STEP LENGTH  86400.      1440.0      24.000      1.0000     2.73785E-03
 STRESS PERIOD TIME  86400.      1440.0      24.000      1.0000     2.73785E-03
         TOTAL TIME 1.87488E+07 3.12480E+05  5208.0      217.00     0.59411    
1
1
                            STRESS PERIOD NO.  218, LENGTH =   1.000000    
                            -----------------------------------------------

                              NUMBER OF TIME STEPS =     1

                               MULTIPLIER FOR DELT =     1.000

                            INITIAL TIME STEP SIZE =   1.000000    

 REUSING NON-PARAMETER RIVER REACHES FROM LAST STRESS PERIOD

      2 RIVER REACHES

                 RECHARGE = -8.306035E-04
 
 SOLVING FOR HEAD 

 OUTPUT CONTROL FOR STRESS PERIOD  218   TIME STEP    1
    SAVE HEAD FOR ALL LAYERS

 HEAD WILL BE SAVED ON UNIT   51 AT END OF TIME STEP    1, STRESS PERIOD  218
1
  VOLUMETRIC BUDGET FOR ENTIRE MODEL AT END OF TIME STEP    1, STRESS PERIOD 218
  ------------------------------------------------------------------------------

     CUMULATIVE VOLUMES      L**3       RATES FOR THIS TIME STEP      L**3/T
     ------------------                 ------------------------

           IN:                                      IN:
           ---                                      ---
             STORAGE =        1309.2146               STORAGE =           9.4237
       CONSTANT HEAD =           0.0000         CONSTANT HEAD =           0.0000
       RIVER LEAKAGE =          83.0358         RIVER LEAKAGE =           1.9340
            RECHARGE =        1397.7572              RECHARGE =           0.0000

            TOTAL IN =        2790.0076              TOTAL IN =          11.3577

          OUT:                                     OUT:
          ----                                     ----
             STORAGE =         561.0844               STORAGE =           0.0000
       CONSTANT HEAD =         719.7963         CONSTANT HEAD =           3.0517
       RIVER LEAKAGE =         763.1215         RIVER LEAKAGE =           0.0000
            RECHARGE =         746.0056              RECHARGE =           8.3060

           TOTAL OUT =        2790.0078             TOTAL OUT =          11.3577

            IN - OUT =      -2.4414E-04              IN - OUT =       1.1444E-05

 PERCENT DISCREPANCY =          -0.00     PERCENT DISCREPANCY =           0.00






         TIME SUMMARY AT END OF TIME STEP    1 IN STRESS PERIOD  218
                    SECONDS     MINUTES      HOURS       DAYS        YEARS
                    -----------------------------------------------------------
   TIME STEP LENGTH  86400.      1440.0      24.000      1.0000     2.73785E-03
 STRESS PERIOD TIME  86400.      1440.0      24.000      1.0000     2.73785E-03
         TOTAL TIME 1.88352E+07 3.13920E+05  5232.0      218.00     0.59685    
1
1
                            STRESS PERIOD NO.  219, LENGTH =   1.000000    
                            -----------------------------------------------

                              NUMBER OF TIME STEPS =     1

                               MULTIPLIER FOR DELT =     1.000

                            INITIAL TIME STEP SIZE =   1.000000    

 REUSING NON-PARAMETER RIVER REACHES FROM LAST STRESS PERIOD

      2 RIVER REACHES

                 RECHARGE = -6.693965E-04
 
 SOLVING FOR HEAD 

 OUTPUT CONTROL FOR STRESS PERIOD  219   TIME STEP    1
    SAVE HEAD FOR ALL LAYERS

 HEAD WILL BE SAVED ON UNIT   51 AT END OF TIME STEP    1, STRESS PERIOD  219
1
  VOLUMETRIC BUDGET FOR ENTIRE MODEL AT END OF TIME STEP    1, STRESS PERIOD 219
  ------------------------------------------------------------------------------

     CUMULATIVE VOLUMES      L**3       RATES FOR THIS TIME STEP      L**3/T
     ------------------                 ------------------------

           IN:                                      IN:
           ---                                      ---
             STORAGE =        1316.9502               STORAGE =           7.7356
       CONSTANT HEAD =           0.0000         CONSTANT HEAD =           0.0000
       RIVER LEAKAGE =          85.0418         RIVER LEAKAGE =           2.0061
            RECHARGE =        1397.7572              RECHARGE =           0.0000

            TOTAL IN =        2799.7493              TOTAL IN =           9.7417

          OUT:                                     OUT:
          ----                                     ----
             STORAGE =         561.0844               STORAGE =           0.0000
       CONSTANT HEAD =         722.8442         CONSTANT HEAD =           3.0479
       RIVER LEAKAGE =         763.1215         RIVER LEAKAGE =           0.0000
            RECHARGE =         752.6996              RECHARGE =           6.6940

           TOTAL OUT =        2799.7495             TOTAL OUT =           9.7419

            IN - OUT =      -2.4414E-04              IN - OUT =      -1.6403E-04

 PERCENT DISCREPANCY =          -0.00     PERCENT DISCREPANCY =          -0.00






         TIME SUMMARY AT END OF TIME STEP    1 IN STRESS PERIOD  219
                    SECONDS     MINUTES      HOURS       DAYS        YEARS
                    -----------------------------------------------------------
   TIME STEP LENGTH  86400.      1440.0      24.000      1.0000     2.73785E-03
 STRESS PERIOD TIME  86400.      1440.0      24.000      1.0000     2.73785E-03
         TOTAL TIME 1.89216E+07 3.15360E+05  5256.0      219.00     0.59959    
1
1
                            STRESS PERIOD NO.  220, LENGTH =   1.000000    
                            -----------------------------------------------

                              NUMBER OF TIME STEPS =     1

                               MULTIPLIER FOR DELT =     1.000

                            INITIAL TIME STEP SIZE =   1.000000    

 REUSING NON-PARAMETER RIVER REACHES FROM LAST STRESS PERIOD

      2 RIVER REACHES

                 RECHARGE = -1.566379E-03
 
 SOLVING FOR HEAD 

 OUTPUT CONTROL FOR STRESS PERIOD  220   TIME STEP    1
    SAVE HEAD FOR ALL LAYERS

 HEAD WILL BE SAVED ON UNIT   51 AT END OF TIME STEP    1, STRESS PERIOD  220
1
  VOLUMETRIC BUDGET FOR ENTIRE MODEL AT END OF TIME STEP    1, STRESS PERIOD 220
  ------------------------------------------------------------------------------

     CUMULATIVE VOLUMES      L**3       RATES FOR THIS TIME STEP      L**3/T
     ------------------                 ------------------------

           IN:                                      IN:
           ---                                      ---
             STORAGE =        1333.2693               STORAGE =          16.3191
       CONSTANT HEAD =           0.0000         CONSTANT HEAD =           0.0000
       RIVER LEAKAGE =          87.4301         RIVER LEAKAGE =           2.3883
            RECHARGE =        1397.7572              RECHARGE =           0.0000

            TOTAL IN =        2818.4565              TOTAL IN =          18.7074

          OUT:                                     OUT:
          ----                                     ----
             STORAGE =         561.0844               STORAGE =           0.0000
       CONSTANT HEAD =         725.8879         CONSTANT HEAD =           3.0438
       RIVER LEAKAGE =         763.1215         RIVER LEAKAGE =           0.0000
            RECHARGE =         768.3634              RECHARGE =          15.6638

           TOTAL OUT =        2818.4570             TOTAL OUT =          18.7076

            IN - OUT =      -4.8828E-04              IN - OUT =      -1.8501E-04

 PERCENT DISCREPANCY =          -0.00     PERCENT DISCREPANCY =          -0.00






         TIME SUMMARY AT END OF TIME STEP    1 IN STRESS PERIOD  220
                    SECONDS     MINUTES      HOURS       DAYS        YEARS
                    -----------------------------------------------------------
   TIME STEP LENGTH  86400.      1440.0      24.000      1.0000     2.73785E-03
 STRESS PERIOD TIME  86400.      1440.0      24.000      1.0000     2.73785E-03
         TOTAL TIME 1.90080E+07 3.16800E+05  5280.0      220.00     0.60233    
1
1
                            STRESS PERIOD NO.  221, LENGTH =   1.000000    
                            -----------------------------------------------

                              NUMBER OF TIME STEPS =     1

                               MULTIPLIER FOR DELT =     1.000

                            INITIAL TIME STEP SIZE =   1.000000    

 REUSING NON-PARAMETER RIVER REACHES FROM LAST STRESS PERIOD

      2 RIVER REACHES

                 RECHARGE = -1.588793E-03
 
 SOLVING FOR HEAD 

 OUTPUT CONTROL FOR STRESS PERIOD  221   TIME STEP    1
    SAVE HEAD FOR ALL LAYERS

 HEAD WILL BE SAVED ON UNIT   51 AT END OF TIME STEP    1, STRESS PERIOD  221
1
  VOLUMETRIC BUDGET FOR ENTIRE MODEL AT END OF TIME STEP    1, STRESS PERIOD 221
  ------------------------------------------------------------------------------

     CUMULATIVE VOLUMES      L**3       RATES FOR THIS TIME STEP      L**3/T
     ------------------                 ------------------------

           IN:                                      IN:
           ---                                      ---
             STORAGE =        1349.5415               STORAGE =          16.2722
       CONSTANT HEAD =           0.0000         CONSTANT HEAD =           0.0000
       RIVER LEAKAGE =          90.0852         RIVER LEAKAGE =           2.6551
            RECHARGE =        1397.7572              RECHARGE =           0.0000

            TOTAL IN =        2837.3838              TOTAL IN =          18.9273

          OUT:                                     OUT:
          ----                                     ----
             STORAGE =         561.0844               STORAGE =           0.0000
       CONSTANT HEAD =         728.9274         CONSTANT HEAD =           3.0395
       RIVER LEAKAGE =         763.1215         RIVER LEAKAGE =           0.0000
            RECHARGE =         784.2513              RECHARGE =          15.8879

           TOTAL OUT =        2837.3848             TOTAL OUT =          18.9274

            IN - OUT =      -9.7656E-04              IN - OUT =      -1.6785E-04

 PERCENT DISCREPANCY =          -0.00     PERCENT DISCREPANCY =          -0.00






         TIME SUMMARY AT END OF TIME STEP    1 IN STRESS PERIOD  221
                    SECONDS     MINUTES      HOURS       DAYS        YEARS
                    -----------------------------------------------------------
   TIME STEP LENGTH  86400.      1440.0      24.000      1.0000     2.73785E-03
 STRESS PERIOD TIME  86400.      1440.0      24.000      1.0000     2.73785E-03
         TOTAL TIME 1.90944E+07 3.18240E+05  5304.0      221.00     0.60507    
1
1
                            STRESS PERIOD NO.  222, LENGTH =   1.000000    
                            -----------------------------------------------

                              NUMBER OF TIME STEPS =     1

                               MULTIPLIER FOR DELT =     1.000

                            INITIAL TIME STEP SIZE =   1.000000    

 REUSING NON-PARAMETER RIVER REACHES FROM LAST STRESS PERIOD

      2 RIVER REACHES

                 RECHARGE =  6.370689E-04
 
 SOLVING FOR HEAD 

 OUTPUT CONTROL FOR STRESS PERIOD  222   TIME STEP    1
    SAVE HEAD FOR ALL LAYERS

 HEAD WILL BE SAVED ON UNIT   51 AT END OF TIME STEP    1, STRESS PERIOD  222
1
  VOLUMETRIC BUDGET FOR ENTIRE MODEL AT END OF TIME STEP    1, STRESS PERIOD 222
  ------------------------------------------------------------------------------

     CUMULATIVE VOLUMES      L**3       RATES FOR THIS TIME STEP      L**3/T
     ------------------                 ------------------------

           IN:                                      IN:
           ---                                      ---
             STORAGE =        1349.8248               STORAGE =           0.2833
       CONSTANT HEAD =           0.0000         CONSTANT HEAD =           0.0000
       RIVER LEAKAGE =          92.1828         RIVER LEAKAGE =           2.0976
            RECHARGE =        1404.1279              RECHARGE =           6.3707

            TOTAL IN =        2846.1357              TOTAL IN =           8.7516

          OUT:                                     OUT:
          ----                                     ----
             STORAGE =         566.7999               STORAGE =           5.7156
       CONSTANT HEAD =         731.9633         CONSTANT HEAD =           3.0359
       RIVER LEAKAGE =         763.1215         RIVER LEAKAGE =           0.0000
            RECHARGE =         784.2513              RECHARGE =           0.0000

           TOTAL OUT =        2846.1362             TOTAL OUT =           8.7515

            IN - OUT =      -4.8828E-04              IN - OUT =       1.3351E-04

 PERCENT DISCREPANCY =          -0.00     PERCENT DISCREPANCY =           0.00






         TIME SUMMARY AT END OF TIME STEP    1 IN STRESS PERIOD  222
                    SECONDS     MINUTES      HOURS       DAYS        YEARS
                    -----------------------------------------------------------
   TIME STEP LENGTH  86400.      1440.0      24.000      1.0000     2.73785E-03
 STRESS PERIOD TIME  86400.      1440.0      24.000      1.0000     2.73785E-03
         TOTAL TIME 1.91808E+07 3.19680E+05  5328.0      222.00     0.60780    
1
1
                            STRESS PERIOD NO.  223, LENGTH =   1.000000    
                            -----------------------------------------------

                              NUMBER OF TIME STEPS =     1

                               MULTIPLIER FOR DELT =     1.000

                            INITIAL TIME STEP SIZE =   1.000000    

 REUSING NON-PARAMETER RIVER REACHES FROM LAST STRESS PERIOD

      2 RIVER REACHES

                 RECHARGE =  9.396551E-05
 
 SOLVING FOR HEAD 

 OUTPUT CONTROL FOR STRESS PERIOD  223   TIME STEP    1
    SAVE HEAD FOR ALL LAYERS

 HEAD WILL BE SAVED ON UNIT   51 AT END OF TIME STEP    1, STRESS PERIOD  223
1
  VOLUMETRIC BUDGET FOR ENTIRE MODEL AT END OF TIME STEP    1, STRESS PERIOD 223
  ------------------------------------------------------------------------------

     CUMULATIVE VOLUMES      L**3       RATES FOR THIS TIME STEP      L**3/T
     ------------------                 ------------------------

           IN:                                      IN:
           ---                                      ---
             STORAGE =        1350.9291               STORAGE =           1.1042
       CONSTANT HEAD =           0.0000         CONSTANT HEAD =           0.0000
       RIVER LEAKAGE =          94.1759         RIVER LEAKAGE =           1.9931
            RECHARGE =        1405.0676              RECHARGE =           0.9397

            TOTAL IN =        2850.1726              TOTAL IN =           4.0370

          OUT:                                     OUT:
          ----                                     ----
             STORAGE =         567.8047               STORAGE =           1.0048
       CONSTANT HEAD =         734.9956         CONSTANT HEAD =           3.0323
       RIVER LEAKAGE =         763.1215         RIVER LEAKAGE =           0.0000
            RECHARGE =         784.2513              RECHARGE =           0.0000

           TOTAL OUT =        2850.1733             TOTAL OUT =           4.0371

            IN - OUT =      -7.3242E-04              IN - OUT =      -1.6546E-04

 PERCENT DISCREPANCY =          -0.00     PERCENT DISCREPANCY =          -0.00






         TIME SUMMARY AT END OF TIME STEP    1 IN STRESS PERIOD  223
                    SECONDS     MINUTES      HOURS       DAYS        YEARS
                    -----------------------------------------------------------
   TIME STEP LENGTH  86400.      1440.0      24.000      1.0000     2.73785E-03
 STRESS PERIOD TIME  86400.      1440.0      24.000      1.0000     2.73785E-03
         TOTAL TIME 1.92672E+07 3.21120E+05  5352.0      223.00     0.61054    
1
1
                            STRESS PERIOD NO.  224, LENGTH =   1.000000    
                            -----------------------------------------------

                              NUMBER OF TIME STEPS =     1

                               MULTIPLIER FOR DELT =     1.000

                            INITIAL TIME STEP SIZE =   1.000000    

 REUSING NON-PARAMETER RIVER REACHES FROM LAST STRESS PERIOD

      2 RIVER REACHES

                 RECHARGE = -1.100862E-03
 
 SOLVING FOR HEAD 

 OUTPUT CONTROL FOR STRESS PERIOD  224   TIME STEP    1
    SAVE HEAD FOR ALL LAYERS

 HEAD WILL BE SAVED ON UNIT   51 AT END OF TIME STEP    1, STRESS PERIOD  224
1
  VOLUMETRIC BUDGET FOR ENTIRE MODEL AT END OF TIME STEP    1, STRESS PERIOD 224
  ------------------------------------------------------------------------------

     CUMULATIVE VOLUMES      L**3       RATES FOR THIS TIME STEP      L**3/T
     ------------------                 ------------------------

           IN:                                      IN:
           ---                                      ---
             STORAGE =        1362.6437               STORAGE =          11.7145
       CONSTANT HEAD =           0.0000         CONSTANT HEAD =           0.0000
       RIVER LEAKAGE =          96.4985         RIVER LEAKAGE =           2.3226
            RECHARGE =        1405.0676              RECHARGE =           0.0000

            TOTAL IN =        2864.2100              TOTAL IN =          14.0372

          OUT:                                     OUT:
          ----                                     ----
             STORAGE =         567.8047               STORAGE =           0.0000
       CONSTANT HEAD =         738.0240         CONSTANT HEAD =           3.0284
       RIVER LEAKAGE =         763.1215         RIVER LEAKAGE =           0.0000
            RECHARGE =         795.2599              RECHARGE =          11.0086

           TOTAL OUT =        2864.2102             TOTAL OUT =          14.0370

            IN - OUT =      -2.4414E-04              IN - OUT =       1.2589E-04

 PERCENT DISCREPANCY =          -0.00     PERCENT DISCREPANCY =           0.00






         TIME SUMMARY AT END OF TIME STEP    1 IN STRESS PERIOD  224
                    SECONDS     MINUTES      HOURS       DAYS        YEARS
                    -----------------------------------------------------------
   TIME STEP LENGTH  86400.      1440.0      24.000      1.0000     2.73785E-03
 STRESS PERIOD TIME  86400.      1440.0      24.000      1.0000     2.73785E-03
         TOTAL TIME 1.93536E+07 3.22560E+05  5376.0      224.00     0.61328    
1
1
                            STRESS PERIOD NO.  225, LENGTH =   1.000000    
                            -----------------------------------------------

                              NUMBER OF TIME STEPS =     1

                               MULTIPLIER FOR DELT =     1.000

                            INITIAL TIME STEP SIZE =   1.000000    

 REUSING NON-PARAMETER RIVER REACHES FROM LAST STRESS PERIOD

      2 RIVER REACHES

                 RECHARGE =  3.991379E-04
 
 SOLVING FOR HEAD 

 OUTPUT CONTROL FOR STRESS PERIOD  225   TIME STEP    1
    SAVE HEAD FOR ALL LAYERS

 HEAD WILL BE SAVED ON UNIT   51 AT END OF TIME STEP    1, STRESS PERIOD  225
1
  VOLUMETRIC BUDGET FOR ENTIRE MODEL AT END OF TIME STEP    1, STRESS PERIOD 225
  ------------------------------------------------------------------------------

     CUMULATIVE VOLUMES      L**3       RATES FOR THIS TIME STEP      L**3/T
     ------------------                 ------------------------

           IN:                                      IN:
           ---                                      ---
             STORAGE =        1362.9208               STORAGE =           0.2771
       CONSTANT HEAD =           0.0000         CONSTANT HEAD =           0.0000
       RIVER LEAKAGE =          98.4911         RIVER LEAKAGE =           1.9925
            RECHARGE =        1409.0590              RECHARGE =           3.9914

            TOTAL IN =        2870.4707              TOTAL IN =           6.2610

          OUT:                                     OUT:
          ----                                     ----
             STORAGE =         571.0411               STORAGE =           3.2363
       CONSTANT HEAD =         741.0489         CONSTANT HEAD =           3.0249
       RIVER LEAKAGE =         763.1215         RIVER LEAKAGE =           0.0000
            RECHARGE =         795.2599              RECHARGE =           0.0000

           TOTAL OUT =        2870.4714             TOTAL OUT =           6.2612

            IN - OUT =      -7.3242E-04              IN - OUT =      -2.2030E-04

 PERCENT DISCREPANCY =          -0.00     PERCENT DISCREPANCY =          -0.00






         TIME SUMMARY AT END OF TIME STEP    1 IN STRESS PERIOD  225
                    SECONDS     MINUTES      HOURS       DAYS        YEARS
                    -----------------------------------------------------------
   TIME STEP LENGTH  86400.      1440.0      24.000      1.0000     2.73785E-03
 STRESS PERIOD TIME  86400.      1440.0      24.000      1.0000     2.73785E-03
         TOTAL TIME 1.94400E+07 3.24000E+05  5400.0      225.00     0.61602    
1
1
                            STRESS PERIOD NO.  226, LENGTH =   1.000000    
                            -----------------------------------------------

                              NUMBER OF TIME STEPS =     1

                               MULTIPLIER FOR DELT =     1.000

                            INITIAL TIME STEP SIZE =   1.000000    

 REUSING NON-PARAMETER RIVER REACHES FROM LAST STRESS PERIOD

      2 RIVER REACHES

                 RECHARGE = -7.750000E-04
 
 SOLVING FOR HEAD 

 OUTPUT CONTROL FOR STRESS PERIOD  226   TIME STEP    1
    SAVE HEAD FOR ALL LAYERS

 HEAD WILL BE SAVED ON UNIT   51 AT END OF TIME STEP    1, STRESS PERIOD  226
1
  VOLUMETRIC BUDGET FOR ENTIRE MODEL AT END OF TIME STEP    1, STRESS PERIOD 226
  ------------------------------------------------------------------------------

     CUMULATIVE VOLUMES      L**3       RATES FOR THIS TIME STEP      L**3/T
     ------------------                 ------------------------

           IN:                                      IN:
           ---                                      ---
             STORAGE =        1371.4698               STORAGE =           8.5491
       CONSTANT HEAD =           0.0000         CONSTANT HEAD =           0.0000
       RIVER LEAKAGE =         100.7132         RIVER LEAKAGE =           2.2221
            RECHARGE =        1409.0590              RECHARGE =           0.0000

            TOTAL IN =        2881.2419              TOTAL IN =          10.7712

          OUT:                                     OUT:
          ----                                     ----
             STORAGE =         571.0411               STORAGE =           0.0000
       CONSTANT HEAD =         744.0701         CONSTANT HEAD =           3.0212
       RIVER LEAKAGE =         763.1215         RIVER LEAKAGE =           0.0000
            RECHARGE =         803.0099              RECHARGE =           7.7500

           TOTAL OUT =        2881.2427             TOTAL OUT =          10.7712

            IN - OUT =      -7.3242E-04              IN - OUT =       7.2479E-05

 PERCENT DISCREPANCY =          -0.00     PERCENT DISCREPANCY =           0.00






         TIME SUMMARY AT END OF TIME STEP    1 IN STRESS PERIOD  226
                    SECONDS     MINUTES      HOURS       DAYS        YEARS
                    -----------------------------------------------------------
   TIME STEP LENGTH  86400.      1440.0      24.000      1.0000     2.73785E-03
 STRESS PERIOD TIME  86400.      1440.0      24.000      1.0000     2.73785E-03
         TOTAL TIME 1.95264E+07 3.25440E+05  5424.0      226.00     0.61875    
1
1
                            STRESS PERIOD NO.  227, LENGTH =   1.000000    
                            -----------------------------------------------

                              NUMBER OF TIME STEPS =     1

                               MULTIPLIER FOR DELT =     1.000

                            INITIAL TIME STEP SIZE =   1.000000    

 REUSING NON-PARAMETER RIVER REACHES FROM LAST STRESS PERIOD

      2 RIVER REACHES

                 RECHARGE =  4.301724E-04
 
 SOLVING FOR HEAD 

 OUTPUT CONTROL FOR STRESS PERIOD  227   TIME STEP    1
    SAVE HEAD FOR ALL LAYERS

 HEAD WILL BE SAVED ON UNIT   51 AT END OF TIME STEP    1, STRESS PERIOD  227
1
  VOLUMETRIC BUDGET FOR ENTIRE MODEL AT END OF TIME STEP    1, STRESS PERIOD 227
  ------------------------------------------------------------------------------

     CUMULATIVE VOLUMES      L**3       RATES FOR THIS TIME STEP      L**3/T
     ------------------                 ------------------------

           IN:                                      IN:
           ---                                      ---
             STORAGE =        1371.7427               STORAGE =           0.2728
       CONSTANT HEAD =           0.0000         CONSTANT HEAD =           0.0000
       RIVER LEAKAGE =         102.6429         RIVER LEAKAGE =           1.9297
            RECHARGE =        1413.3607              RECHARGE =           4.3017

            TOTAL IN =        2887.7461              TOTAL IN =           6.5042

          OUT:                                     OUT:
          ----                                     ----
             STORAGE =         574.5273               STORAGE =           3.4863
       CONSTANT HEAD =         747.0878         CONSTANT HEAD =           3.0178
       RIVER LEAKAGE =         763.1215         RIVER LEAKAGE =           0.0000
            RECHARGE =         803.0099              RECHARGE =           0.0000

           TOTAL OUT =        2887.7468             TOTAL OUT =           6.5041

            IN - OUT =      -7.3242E-04              IN - OUT =       1.7500E-04

 PERCENT DISCREPANCY =          -0.00     PERCENT DISCREPANCY =           0.00






         TIME SUMMARY AT END OF TIME STEP    1 IN STRESS PERIOD  227
                    SECONDS     MINUTES      HOURS       DAYS        YEARS
                    -----------------------------------------------------------
   TIME STEP LENGTH  86400.      1440.0      24.000      1.0000     2.73785E-03
 STRESS PERIOD TIME  86400.      1440.0      24.000      1.0000     2.73785E-03
         TOTAL TIME 1.96128E+07 3.26880E+05  5448.0      227.00     0.62149    
1
1
                            STRESS PERIOD NO.  228, LENGTH =   1.000000    
                            -----------------------------------------------

                              NUMBER OF TIME STEPS =     1

                               MULTIPLIER FOR DELT =     1.000

                            INITIAL TIME STEP SIZE =   1.000000    

 REUSING NON-PARAMETER RIVER REACHES FROM LAST STRESS PERIOD

      2 RIVER REACHES

                 RECHARGE =  3.448276E-05
 
 SOLVING FOR HEAD 

 OUTPUT CONTROL FOR STRESS PERIOD  228   TIME STEP    1
    SAVE HEAD FOR ALL LAYERS

 HEAD WILL BE SAVED ON UNIT   51 AT END OF TIME STEP    1, STRESS PERIOD  228
1
  VOLUMETRIC BUDGET FOR ENTIRE MODEL AT END OF TIME STEP    1, STRESS PERIOD 228
  ------------------------------------------------------------------------------

     CUMULATIVE VOLUMES      L**3       RATES FOR THIS TIME STEP      L**3/T
     ------------------                 ------------------------

           IN:                                      IN:
           ---                                      ---
             STORAGE =        1373.0731               STORAGE =           1.3305
       CONSTANT HEAD =           0.0000         CONSTANT HEAD =           0.0000
       RIVER LEAKAGE =         104.5448         RIVER LEAKAGE =           1.9020
            RECHARGE =        1413.7056              RECHARGE =           0.3448

            TOTAL IN =        2891.3235              TOTAL IN =           3.5773

          OUT:                                     OUT:
          ----                                     ----
             STORAGE =         575.0902               STORAGE =           0.5628
       CONSTANT HEAD =         750.1022         CONSTANT HEAD =           3.0144
       RIVER LEAKAGE =         763.1215         RIVER LEAKAGE =           0.0000
            RECHARGE =         803.0099              RECHARGE =           0.0000

           TOTAL OUT =        2891.3240             TOTAL OUT =           3.5772

            IN - OUT =      -4.8828E-04              IN - OUT =       7.2956E-05

 PERCENT DISCREPANCY =          -0.00     PERCENT DISCREPANCY =           0.00






         TIME SUMMARY AT END OF TIME STEP    1 IN STRESS PERIOD  228
                    SECONDS     MINUTES      HOURS       DAYS        YEARS
                    -----------------------------------------------------------
   TIME STEP LENGTH  86400.      1440.0      24.000      1.0000     2.73785E-03
 STRESS PERIOD TIME  86400.      1440.0      24.000      1.0000     2.73785E-03
         TOTAL TIME 1.96992E+07 3.28320E+05  5472.0      228.00     0.62423    
1
1
                            STRESS PERIOD NO.  229, LENGTH =   1.000000    
                            -----------------------------------------------

                              NUMBER OF TIME STEPS =     1

                               MULTIPLIER FOR DELT =     1.000

                            INITIAL TIME STEP SIZE =   1.000000    

 REUSING NON-PARAMETER RIVER REACHES FROM LAST STRESS PERIOD

      2 RIVER REACHES

                 RECHARGE = -1.728448E-04
 
 SOLVING FOR HEAD 

 OUTPUT CONTROL FOR STRESS PERIOD  229   TIME STEP    1
    SAVE HEAD FOR ALL LAYERS

 HEAD WILL BE SAVED ON UNIT   51 AT END OF TIME STEP    1, STRESS PERIOD  229
1
  VOLUMETRIC BUDGET FOR ENTIRE MODEL AT END OF TIME STEP    1, STRESS PERIOD 229
  ------------------------------------------------------------------------------

     CUMULATIVE VOLUMES      L**3       RATES FOR THIS TIME STEP      L**3/T
     ------------------                 ------------------------

           IN:                                      IN:
           ---                                      ---
             STORAGE =        1375.8740               STORAGE =           2.8009
       CONSTANT HEAD =           0.0000         CONSTANT HEAD =           0.0000
       RIVER LEAKAGE =         106.4834         RIVER LEAKAGE =           1.9385
            RECHARGE =        1413.7056              RECHARGE =           0.0000

            TOTAL IN =        2896.0630              TOTAL IN =           4.7395

          OUT:                                     OUT:
          ----                                     ----
             STORAGE =         575.0902               STORAGE =           0.0000
       CONSTANT HEAD =         753.1132         CONSTANT HEAD =           3.0110
       RIVER LEAKAGE =         763.1215         RIVER LEAKAGE =           0.0000
            RECHARGE =         804.7384              RECHARGE =           1.7284

           TOTAL OUT =        2896.0635             TOTAL OUT =           4.7394

            IN - OUT =      -4.8828E-04              IN - OUT =       5.2929E-05

 PERCENT DISCREPANCY =          -0.00     PERCENT DISCREPANCY =           0.00






         TIME SUMMARY AT END OF TIME STEP    1 IN STRESS PERIOD  229
                    SECONDS     MINUTES      HOURS       DAYS        YEARS
                    -----------------------------------------------------------
   TIME STEP LENGTH  86400.      1440.0      24.000      1.0000     2.73785E-03
 STRESS PERIOD TIME  86400.      1440.0      24.000      1.0000     2.73785E-03
         TOTAL TIME 1.97856E+07 3.29760E+05  5496.0      229.00     0.62697    
1
1
                            STRESS PERIOD NO.  230, LENGTH =   1.000000    
                            -----------------------------------------------

                              NUMBER OF TIME STEPS =     1

                               MULTIPLIER FOR DELT =     1.000

                            INITIAL TIME STEP SIZE =   1.000000    

 REUSING NON-PARAMETER RIVER REACHES FROM LAST STRESS PERIOD

      2 RIVER REACHES

                 RECHARGE = -5.301724E-04
 
 SOLVING FOR HEAD 

 OUTPUT CONTROL FOR STRESS PERIOD  230   TIME STEP    1
    SAVE HEAD FOR ALL LAYERS

 HEAD WILL BE SAVED ON UNIT   51 AT END OF TIME STEP    1, STRESS PERIOD  230
1
  VOLUMETRIC BUDGET FOR ENTIRE MODEL AT END OF TIME STEP    1, STRESS PERIOD 230
  ------------------------------------------------------------------------------

     CUMULATIVE VOLUMES      L**3       RATES FOR THIS TIME STEP      L**3/T
     ------------------                 ------------------------

           IN:                                      IN:
           ---                                      ---
             STORAGE =        1382.1075               STORAGE =           6.2336
       CONSTANT HEAD =           0.0000         CONSTANT HEAD =           0.0000
       RIVER LEAKAGE =         108.5592         RIVER LEAKAGE =           2.0758
            RECHARGE =        1413.7056              RECHARGE =           0.0000

            TOTAL IN =        2904.3723              TOTAL IN =           8.3094

          OUT:                                     OUT:
          ----                                     ----
             STORAGE =         575.0902               STORAGE =           0.0000
       CONSTANT HEAD =         756.1207         CONSTANT HEAD =           3.0074
       RIVER LEAKAGE =         763.1215         RIVER LEAKAGE =           0.0000
            RECHARGE =         810.0401              RECHARGE =           5.3017

           TOTAL OUT =        2904.3726             TOTAL OUT =           8.3092

            IN - OUT =      -2.4414E-04              IN - OUT =       2.0981E-04

 PERCENT DISCREPANCY =          -0.00     PERCENT DISCREPANCY =           0.00






         TIME SUMMARY AT END OF TIME STEP    1 IN STRESS PERIOD  230
                    SECONDS     MINUTES      HOURS       DAYS        YEARS
                    -----------------------------------------------------------
   TIME STEP LENGTH  86400.      1440.0      24.000      1.0000     2.73785E-03
 STRESS PERIOD TIME  86400.      1440.0      24.000      1.0000     2.73785E-03
         TOTAL TIME 1.98720E+07 3.31200E+05  5520.0      230.00     0.62971    
1
1
                            STRESS PERIOD NO.  231, LENGTH =   1.000000    
                            -----------------------------------------------

                              NUMBER OF TIME STEPS =     1

                               MULTIPLIER FOR DELT =     1.000

                            INITIAL TIME STEP SIZE =   1.000000    

 REUSING NON-PARAMETER RIVER REACHES FROM LAST STRESS PERIOD

      2 RIVER REACHES

                 RECHARGE = -5.090517E-04
 
 SOLVING FOR HEAD 

 OUTPUT CONTROL FOR STRESS PERIOD  231   TIME STEP    1
    SAVE HEAD FOR ALL LAYERS

 HEAD WILL BE SAVED ON UNIT   51 AT END OF TIME STEP    1, STRESS PERIOD  231
1
  VOLUMETRIC BUDGET FOR ENTIRE MODEL AT END OF TIME STEP    1, STRESS PERIOD 231
  ------------------------------------------------------------------------------

     CUMULATIVE VOLUMES      L**3       RATES FOR THIS TIME STEP      L**3/T
     ------------------                 ------------------------

           IN:                                      IN:
           ---                                      ---
             STORAGE =        1388.0493               STORAGE =           5.9418
       CONSTANT HEAD =           0.0000         CONSTANT HEAD =           0.0000
       RIVER LEAKAGE =         110.7120         RIVER LEAKAGE =           2.1528
            RECHARGE =        1413.7056              RECHARGE =           0.0000

            TOTAL IN =        2912.4668              TOTAL IN =           8.0946

          OUT:                                     OUT:
          ----                                     ----
             STORAGE =         575.0902               STORAGE =           0.0000
       CONSTANT HEAD =         759.1246         CONSTANT HEAD =           3.0039
       RIVER LEAKAGE =         763.1215         RIVER LEAKAGE =           0.0000
            RECHARGE =         815.1306              RECHARGE =           5.0905

           TOTAL OUT =        2912.4670             TOTAL OUT =           8.0944

            IN - OUT =      -2.4414E-04              IN - OUT =       2.0885E-04

 PERCENT DISCREPANCY =          -0.00     PERCENT DISCREPANCY =           0.00






         TIME SUMMARY AT END OF TIME STEP    1 IN STRESS PERIOD  231
                    SECONDS     MINUTES      HOURS       DAYS        YEARS
                    -----------------------------------------------------------
   TIME STEP LENGTH  86400.      1440.0      24.000      1.0000     2.73785E-03
 STRESS PERIOD TIME  86400.      1440.0      24.000      1.0000     2.73785E-03
         TOTAL TIME 1.99584E+07 3.32640E+05  5544.0      231.00     0.63244    
1
1
                            STRESS PERIOD NO.  232, LENGTH =   1.000000    
                            -----------------------------------------------

                              NUMBER OF TIME STEPS =     1

                               MULTIPLIER FOR DELT =     1.000

                            INITIAL TIME STEP SIZE =   1.000000    

 REUSING NON-PARAMETER RIVER REACHES FROM LAST STRESS PERIOD

      2 RIVER REACHES

                 RECHARGE =  3.280173E-04
 
 SOLVING FOR HEAD 

 OUTPUT CONTROL FOR STRESS PERIOD  232   TIME STEP    1
    SAVE HEAD FOR ALL LAYERS

 HEAD WILL BE SAVED ON UNIT   51 AT END OF TIME STEP    1, STRESS PERIOD  232
1
  VOLUMETRIC BUDGET FOR ENTIRE MODEL AT END OF TIME STEP    1, STRESS PERIOD 232
  ------------------------------------------------------------------------------

     CUMULATIVE VOLUMES      L**3       RATES FOR THIS TIME STEP      L**3/T
     ------------------                 ------------------------

           IN:                                      IN:
           ---                                      ---
             STORAGE =        1388.3121               STORAGE =           0.2629
       CONSTANT HEAD =           0.0000         CONSTANT HEAD =           0.0000
       RIVER LEAKAGE =         112.6345         RIVER LEAKAGE =           1.9225
            RECHARGE =        1416.9857              RECHARGE =           3.2802

            TOTAL IN =        2917.9324              TOTAL IN =           5.4656

          OUT:                                     OUT:
          ----                                     ----
             STORAGE =         577.5552               STORAGE =           2.4649
       CONSTANT HEAD =         762.1252         CONSTANT HEAD =           3.0006
       RIVER LEAKAGE =         763.1215         RIVER LEAKAGE =           0.0000
            RECHARGE =         815.1306              RECHARGE =           0.0000

           TOTAL OUT =        2917.9326             TOTAL OUT =           5.4655

            IN - OUT =      -2.4414E-04              IN - OUT =       2.8133E-05

 PERCENT DISCREPANCY =          -0.00     PERCENT DISCREPANCY =           0.00






         TIME SUMMARY AT END OF TIME STEP    1 IN STRESS PERIOD  232
                    SECONDS     MINUTES      HOURS       DAYS        YEARS
                    -----------------------------------------------------------
   TIME STEP LENGTH  86400.      1440.0      24.000      1.0000     2.73785E-03
 STRESS PERIOD TIME  86400.      1440.0      24.000      1.0000     2.73785E-03
         TOTAL TIME 2.00448E+07 3.34080E+05  5568.0      232.00     0.63518    
1
1
                            STRESS PERIOD NO.  233, LENGTH =   1.000000    
                            -----------------------------------------------

                              NUMBER OF TIME STEPS =     1

                               MULTIPLIER FOR DELT =     1.000

                            INITIAL TIME STEP SIZE =   1.000000    

 REUSING NON-PARAMETER RIVER REACHES FROM LAST STRESS PERIOD

      2 RIVER REACHES

                 RECHARGE =  1.314655E-04
 
 SOLVING FOR HEAD 

 OUTPUT CONTROL FOR STRESS PERIOD  233   TIME STEP    1
    SAVE HEAD FOR ALL LAYERS

 HEAD WILL BE SAVED ON UNIT   51 AT END OF TIME STEP    1, STRESS PERIOD  233
1
  VOLUMETRIC BUDGET FOR ENTIRE MODEL AT END OF TIME STEP    1, STRESS PERIOD 233
  ------------------------------------------------------------------------------

     CUMULATIVE VOLUMES      L**3       RATES FOR THIS TIME STEP      L**3/T
     ------------------                 ------------------------

           IN:                                      IN:
           ---                                      ---
             STORAGE =        1389.0422               STORAGE =           0.7301
       CONSTANT HEAD =           0.0000         CONSTANT HEAD =           0.0000
       RIVER LEAKAGE =         114.4962         RIVER LEAKAGE =           1.8617
            RECHARGE =        1418.3004              RECHARGE =           1.3147

            TOTAL IN =        2921.8389              TOTAL IN =           3.9064

          OUT:                                     OUT:
          ----                                     ----
             STORAGE =         578.4642               STORAGE =           0.9090
       CONSTANT HEAD =         765.1226         CONSTANT HEAD =           2.9974
       RIVER LEAKAGE =         763.1215         RIVER LEAKAGE =           0.0000
            RECHARGE =         815.1306              RECHARGE =           0.0000

           TOTAL OUT =        2921.8389             TOTAL OUT =           3.9064

            IN - OUT =           0.0000              IN - OUT =       8.3447E-06

 PERCENT DISCREPANCY =           0.00     PERCENT DISCREPANCY =           0.00






         TIME SUMMARY AT END OF TIME STEP    1 IN STRESS PERIOD  233
                    SECONDS     MINUTES      HOURS       DAYS        YEARS
                    -----------------------------------------------------------
   TIME STEP LENGTH  86400.      1440.0      24.000      1.0000     2.73785E-03
 STRESS PERIOD TIME  86400.      1440.0      24.000      1.0000     2.73785E-03
         TOTAL TIME 2.01312E+07 3.35520E+05  5592.0      233.00     0.63792    
1
1
                            STRESS PERIOD NO.  234, LENGTH =   1.000000    
                            -----------------------------------------------

                              NUMBER OF TIME STEPS =     1

                               MULTIPLIER FOR DELT =     1.000

                            INITIAL TIME STEP SIZE =   1.000000    

 REUSING NON-PARAMETER RIVER REACHES FROM LAST STRESS PERIOD

      2 RIVER REACHES

                 RECHARGE =  2.599138E-04
 
 SOLVING FOR HEAD 

 OUTPUT CONTROL FOR STRESS PERIOD  234   TIME STEP    1
    SAVE HEAD FOR ALL LAYERS

 HEAD WILL BE SAVED ON UNIT   51 AT END OF TIME STEP    1, STRESS PERIOD  234
1
  VOLUMETRIC BUDGET FOR ENTIRE MODEL AT END OF TIME STEP    1, STRESS PERIOD 234
  ------------------------------------------------------------------------------

     CUMULATIVE VOLUMES      L**3       RATES FOR THIS TIME STEP      L**3/T
     ------------------                 ------------------------

           IN:                                      IN:
           ---                                      ---
             STORAGE =        1389.3318               STORAGE =           0.2895
       CONSTANT HEAD =           0.0000         CONSTANT HEAD =           0.0000
       RIVER LEAKAGE =         116.2621         RIVER LEAKAGE =           1.7659
            RECHARGE =        1420.8995              RECHARGE =           2.5991

            TOTAL IN =        2926.4934              TOTAL IN =           4.6546

          OUT:                                     OUT:
          ----                                     ----
             STORAGE =         580.1246               STORAGE =           1.6604
       CONSTANT HEAD =         768.1168         CONSTANT HEAD =           2.9942
       RIVER LEAKAGE =         763.1215         RIVER LEAKAGE =           0.0000
            RECHARGE =         815.1306              RECHARGE =           0.0000

           TOTAL OUT =        2926.4937             TOTAL OUT =           4.6547

            IN - OUT =      -2.4414E-04              IN - OUT =      -8.5354E-05

 PERCENT DISCREPANCY =          -0.00     PERCENT DISCREPANCY =          -0.00






         TIME SUMMARY AT END OF TIME STEP    1 IN STRESS PERIOD  234
                    SECONDS     MINUTES      HOURS       DAYS        YEARS
                    -----------------------------------------------------------
   TIME STEP LENGTH  86400.      1440.0      24.000      1.0000     2.73785E-03
 STRESS PERIOD TIME  86400.      1440.0      24.000      1.0000     2.73785E-03
         TOTAL TIME 2.02176E+07 3.36960E+05  5616.0      234.00     0.64066    
1
1
                            STRESS PERIOD NO.  235, LENGTH =   1.000000    
                            -----------------------------------------------

                              NUMBER OF TIME STEPS =     1

                               MULTIPLIER FOR DELT =     1.000

                            INITIAL TIME STEP SIZE =   1.000000    

 REUSING NON-PARAMETER RIVER REACHES FROM LAST STRESS PERIOD

      2 RIVER REACHES

                 RECHARGE =  1.706465E-03
 
 SOLVING FOR HEAD 

 OUTPUT CONTROL FOR STRESS PERIOD  235   TIME STEP    1
    SAVE HEAD FOR ALL LAYERS

 HEAD WILL BE SAVED ON UNIT   51 AT END OF TIME STEP    1, STRESS PERIOD  235
1
  VOLUMETRIC BUDGET FOR ENTIRE MODEL AT END OF TIME STEP    1, STRESS PERIOD 235
  ------------------------------------------------------------------------------

     CUMULATIVE VOLUMES      L**3       RATES FOR THIS TIME STEP      L**3/T
     ------------------                 ------------------------

           IN:                                      IN:
           ---                                      ---
             STORAGE =        1389.5735               STORAGE =           0.2418
       CONSTANT HEAD =           0.0000         CONSTANT HEAD =           0.0000
       RIVER LEAKAGE =         117.4550         RIVER LEAKAGE =           1.1930
            RECHARGE =        1437.9642              RECHARGE =          17.0646

            TOTAL IN =        2944.9927              TOTAL IN =          18.4994

          OUT:                                     OUT:
          ----                                     ----
             STORAGE =         595.6321               STORAGE =          15.5076
       CONSTANT HEAD =         771.1085         CONSTANT HEAD =           2.9917
       RIVER LEAKAGE =         763.1215         RIVER LEAKAGE =           0.0000
            RECHARGE =         815.1306              RECHARGE =           0.0000

           TOTAL OUT =        2944.9929             TOTAL OUT =          18.4993

            IN - OUT =      -2.4414E-04              IN - OUT =       9.5367E-05

 PERCENT DISCREPANCY =          -0.00     PERCENT DISCREPANCY =           0.00






         TIME SUMMARY AT END OF TIME STEP    1 IN STRESS PERIOD  235
                    SECONDS     MINUTES      HOURS       DAYS        YEARS
                    -----------------------------------------------------------
   TIME STEP LENGTH  86400.      1440.0      24.000      1.0000     2.73785E-03
 STRESS PERIOD TIME  86400.      1440.0      24.000      1.0000     2.73785E-03
         TOTAL TIME 2.03040E+07 3.38400E+05  5640.0      235.00     0.64339    
1
1
                            STRESS PERIOD NO.  236, LENGTH =   1.000000    
                            -----------------------------------------------

                              NUMBER OF TIME STEPS =     1

                               MULTIPLIER FOR DELT =     1.000

                            INITIAL TIME STEP SIZE =   1.000000    

 REUSING NON-PARAMETER RIVER REACHES FROM LAST STRESS PERIOD

      2 RIVER REACHES

                 RECHARGE =  9.913793E-05
 
 SOLVING FOR HEAD 

 OUTPUT CONTROL FOR STRESS PERIOD  236   TIME STEP    1
    SAVE HEAD FOR ALL LAYERS

 HEAD WILL BE SAVED ON UNIT   51 AT END OF TIME STEP    1, STRESS PERIOD  236
1
  VOLUMETRIC BUDGET FOR ENTIRE MODEL AT END OF TIME STEP    1, STRESS PERIOD 236
  ------------------------------------------------------------------------------

     CUMULATIVE VOLUMES      L**3       RATES FOR THIS TIME STEP      L**3/T
     ------------------                 ------------------------

           IN:                                      IN:
           ---                                      ---
             STORAGE =        1390.5654               STORAGE =           0.9919
       CONSTANT HEAD =           0.0000         CONSTANT HEAD =           0.0000
       RIVER LEAKAGE =         118.8368         RIVER LEAKAGE =           1.3818
            RECHARGE =        1438.9556              RECHARGE =           0.9914

            TOTAL IN =        2948.3579              TOTAL IN =           3.3651

          OUT:                                     OUT:
          ----                                     ----
             STORAGE =         596.0083               STORAGE =           0.3761
       CONSTANT HEAD =         774.0974         CONSTANT HEAD =           2.9889
       RIVER LEAKAGE =         763.1215         RIVER LEAKAGE =           0.0000
            RECHARGE =         815.1306              RECHARGE =           0.0000

           TOTAL OUT =        2948.3579             TOTAL OUT =           3.3650

            IN - OUT =           0.0000              IN - OUT =       6.6280E-05

 PERCENT DISCREPANCY =           0.00     PERCENT DISCREPANCY =           0.00






         TIME SUMMARY AT END OF TIME STEP    1 IN STRESS PERIOD  236
                    SECONDS     MINUTES      HOURS       DAYS        YEARS
                    -----------------------------------------------------------
   TIME STEP LENGTH  86400.      1440.0      24.000      1.0000     2.73785E-03
 STRESS PERIOD TIME  86400.      1440.0      24.000      1.0000     2.73785E-03
         TOTAL TIME 2.03904E+07 3.39840E+05  5664.0      236.00     0.64613    
1
1
                            STRESS PERIOD NO.  237, LENGTH =   1.000000    
                            -----------------------------------------------

                              NUMBER OF TIME STEPS =     1

                               MULTIPLIER FOR DELT =     1.000

                            INITIAL TIME STEP SIZE =   1.000000    

 REUSING NON-PARAMETER RIVER REACHES FROM LAST STRESS PERIOD

      2 RIVER REACHES

                 RECHARGE =  3.465517E-04
 
 SOLVING FOR HEAD 

 OUTPUT CONTROL FOR STRESS PERIOD  237   TIME STEP    1
    SAVE HEAD FOR ALL LAYERS

 HEAD WILL BE SAVED ON UNIT   51 AT END OF TIME STEP    1, STRESS PERIOD  237
1
  VOLUMETRIC BUDGET FOR ENTIRE MODEL AT END OF TIME STEP    1, STRESS PERIOD 237
  ------------------------------------------------------------------------------

     CUMULATIVE VOLUMES      L**3       RATES FOR THIS TIME STEP      L**3/T
     ------------------                 ------------------------

           IN:                                      IN:
           ---                                      ---
             STORAGE =        1390.8002               STORAGE =           0.2347
       CONSTANT HEAD =           0.0000         CONSTANT HEAD =           0.0000
       RIVER LEAKAGE =         120.1890         RIVER LEAKAGE =           1.3522
            RECHARGE =        1442.4211              RECHARGE =           3.4655

            TOTAL IN =        2953.4102              TOTAL IN =           5.0524

          OUT:                                     OUT:
          ----                                     ----
             STORAGE =         598.0748               STORAGE =           2.0664
       CONSTANT HEAD =         777.0836         CONSTANT HEAD =           2.9861
       RIVER LEAKAGE =         763.1215         RIVER LEAKAGE =           0.0000
            RECHARGE =         815.1306              RECHARGE =           0.0000

           TOTAL OUT =        2953.4104             TOTAL OUT =           5.0526

            IN - OUT =      -2.4414E-04              IN - OUT =      -1.3018E-04

 PERCENT DISCREPANCY =          -0.00     PERCENT DISCREPANCY =          -0.00






         TIME SUMMARY AT END OF TIME STEP    1 IN STRESS PERIOD  237
                    SECONDS     MINUTES      HOURS       DAYS        YEARS
                    -----------------------------------------------------------
   TIME STEP LENGTH  86400.      1440.0      24.000      1.0000     2.73785E-03
 STRESS PERIOD TIME  86400.      1440.0      24.000      1.0000     2.73785E-03
         TOTAL TIME 2.04768E+07 3.41280E+05  5688.0      237.00     0.64887    
1
1
                            STRESS PERIOD NO.  238, LENGTH =   1.000000    
                            -----------------------------------------------

                              NUMBER OF TIME STEPS =     1

                               MULTIPLIER FOR DELT =     1.000

                            INITIAL TIME STEP SIZE =   1.000000    

 REUSING NON-PARAMETER RIVER REACHES FROM LAST STRESS PERIOD

      2 RIVER REACHES

                 RECHARGE = -7.974138E-05
 
 SOLVING FOR HEAD 

 OUTPUT CONTROL FOR STRESS PERIOD  238   TIME STEP    1
    SAVE HEAD FOR ALL LAYERS

 HEAD WILL BE SAVED ON UNIT   51 AT END OF TIME STEP    1, STRESS PERIOD  238
1
  VOLUMETRIC BUDGET FOR ENTIRE MODEL AT END OF TIME STEP    1, STRESS PERIOD 238
  ------------------------------------------------------------------------------

     CUMULATIVE VOLUMES      L**3       RATES FOR THIS TIME STEP      L**3/T
     ------------------                 ------------------------

           IN:                                      IN:
           ---                                      ---
             STORAGE =        1393.1121               STORAGE =           2.3119
       CONSTANT HEAD =           0.0000         CONSTANT HEAD =           0.0000
       RIVER LEAKAGE =         121.6577         RIVER LEAKAGE =           1.4686
            RECHARGE =        1442.4211              RECHARGE =           0.0000

            TOTAL IN =        2957.1909              TOTAL IN =           3.7805

          OUT:                                     OUT:
          ----                                     ----
             STORAGE =         598.0748               STORAGE =           0.0000
       CONSTANT HEAD =         780.0668         CONSTANT HEAD =           2.9832
       RIVER LEAKAGE =         763.1215         RIVER LEAKAGE =           0.0000
            RECHARGE =         815.9280              RECHARGE =           0.7974

           TOTAL OUT =        2957.1912             TOTAL OUT =           3.7807

            IN - OUT =      -2.4414E-04              IN - OUT =      -1.5163E-04

 PERCENT DISCREPANCY =          -0.00     PERCENT DISCREPANCY =          -0.00






         TIME SUMMARY AT END OF TIME STEP    1 IN STRESS PERIOD  238
                    SECONDS     MINUTES      HOURS       DAYS        YEARS
                    -----------------------------------------------------------
   TIME STEP LENGTH  86400.      1440.0      24.000      1.0000     2.73785E-03
 STRESS PERIOD TIME  86400.      1440.0      24.000      1.0000     2.73785E-03
         TOTAL TIME 2.05632E+07 3.42720E+05  5712.0      238.00     0.65161    
1
1
                            STRESS PERIOD NO.  239, LENGTH =   1.000000    
                            -----------------------------------------------

                              NUMBER OF TIME STEPS =     1

                               MULTIPLIER FOR DELT =     1.000

                            INITIAL TIME STEP SIZE =   1.000000    

 REUSING NON-PARAMETER RIVER REACHES FROM LAST STRESS PERIOD

      2 RIVER REACHES

                 RECHARGE =  9.228448E-04
 
 SOLVING FOR HEAD 

 OUTPUT CONTROL FOR STRESS PERIOD  239   TIME STEP    1
    SAVE HEAD FOR ALL LAYERS

 HEAD WILL BE SAVED ON UNIT   51 AT END OF TIME STEP    1, STRESS PERIOD  239
1
  VOLUMETRIC BUDGET FOR ENTIRE MODEL AT END OF TIME STEP    1, STRESS PERIOD 239
  ------------------------------------------------------------------------------

     CUMULATIVE VOLUMES      L**3       RATES FOR THIS TIME STEP      L**3/T
     ------------------                 ------------------------

           IN:                                      IN:
           ---                                      ---
             STORAGE =        1393.3374               STORAGE =           0.2253
       CONSTANT HEAD =           0.0000         CONSTANT HEAD =           0.0000
       RIVER LEAKAGE =         122.8369         RIVER LEAKAGE =           1.1792
            RECHARGE =        1451.6495              RECHARGE =           9.2284

            TOTAL IN =        2967.8237              TOTAL IN =          10.6330

          OUT:                                     OUT:
          ----                                     ----
             STORAGE =         605.7267               STORAGE =           7.6520
       CONSTANT HEAD =         783.0475         CONSTANT HEAD =           2.9807
       RIVER LEAKAGE =         763.1215         RIVER LEAKAGE =           0.0000
            RECHARGE =         815.9280              RECHARGE =           0.0000

           TOTAL OUT =        2967.8237             TOTAL OUT =          10.6327

            IN - OUT =           0.0000              IN - OUT =       2.3651E-04

 PERCENT DISCREPANCY =           0.00     PERCENT DISCREPANCY =           0.00






         TIME SUMMARY AT END OF TIME STEP    1 IN STRESS PERIOD  239
                    SECONDS     MINUTES      HOURS       DAYS        YEARS
                    -----------------------------------------------------------
   TIME STEP LENGTH  86400.      1440.0      24.000      1.0000     2.73785E-03
 STRESS PERIOD TIME  86400.      1440.0      24.000      1.0000     2.73785E-03
         TOTAL TIME 2.06496E+07 3.44160E+05  5736.0      239.00     0.65435    
1
1
                            STRESS PERIOD NO.  240, LENGTH =   1.000000    
                            -----------------------------------------------

                              NUMBER OF TIME STEPS =     1

                               MULTIPLIER FOR DELT =     1.000

                            INITIAL TIME STEP SIZE =   1.000000    

 REUSING NON-PARAMETER RIVER REACHES FROM LAST STRESS PERIOD

      2 RIVER REACHES

                 RECHARGE =  3.663793E-04
 
 SOLVING FOR HEAD 

 OUTPUT CONTROL FOR STRESS PERIOD  240   TIME STEP    1
    SAVE HEAD FOR ALL LAYERS

 HEAD WILL BE SAVED ON UNIT   51 AT END OF TIME STEP    1, STRESS PERIOD  240
1
  VOLUMETRIC BUDGET FOR ENTIRE MODEL AT END OF TIME STEP    1, STRESS PERIOD 240
  ------------------------------------------------------------------------------

     CUMULATIVE VOLUMES      L**3       RATES FOR THIS TIME STEP      L**3/T
     ------------------                 ------------------------

           IN:                                      IN:
           ---                                      ---
             STORAGE =        1393.5604               STORAGE =           0.2230
       CONSTANT HEAD =           0.0000         CONSTANT HEAD =           0.0000
       RIVER LEAKAGE =         124.0314         RIVER LEAKAGE =           1.1945
            RECHARGE =        1455.3134              RECHARGE =           3.6638

            TOTAL IN =        2972.9053              TOTAL IN =           5.0813

          OUT:                                     OUT:
          ----                                     ----
             STORAGE =         607.8301               STORAGE =           2.1034
       CONSTANT HEAD =         786.0256         CONSTANT HEAD =           2.9781
       RIVER LEAKAGE =         763.1215         RIVER LEAKAGE =           0.0000
            RECHARGE =         815.9280              RECHARGE =           0.0000

           TOTAL OUT =        2972.9053             TOTAL OUT =           5.0815

            IN - OUT =           0.0000              IN - OUT =      -2.3222E-04

 PERCENT DISCREPANCY =           0.00     PERCENT DISCREPANCY =          -0.00






         TIME SUMMARY AT END OF TIME STEP    1 IN STRESS PERIOD  240
                    SECONDS     MINUTES      HOURS       DAYS        YEARS
                    -----------------------------------------------------------
   TIME STEP LENGTH  86400.      1440.0      24.000      1.0000     2.73785E-03
 STRESS PERIOD TIME  86400.      1440.0      24.000      1.0000     2.73785E-03
         TOTAL TIME 2.07360E+07 3.45600E+05  5760.0      240.00     0.65708    
1
1
                            STRESS PERIOD NO.  241, LENGTH =   1.000000    
                            -----------------------------------------------

                              NUMBER OF TIME STEPS =     1

                               MULTIPLIER FOR DELT =     1.000

                            INITIAL TIME STEP SIZE =   1.000000    

 REUSING NON-PARAMETER RIVER REACHES FROM LAST STRESS PERIOD

      2 RIVER REACHES

                 RECHARGE =  1.281034E-03
 
 SOLVING FOR HEAD 

 OUTPUT CONTROL FOR STRESS PERIOD  241   TIME STEP    1
    SAVE HEAD FOR ALL LAYERS

 HEAD WILL BE SAVED ON UNIT   51 AT END OF TIME STEP    1, STRESS PERIOD  241
1
  VOLUMETRIC BUDGET FOR ENTIRE MODEL AT END OF TIME STEP    1, STRESS PERIOD 241
  ------------------------------------------------------------------------------

     CUMULATIVE VOLUMES      L**3       RATES FOR THIS TIME STEP      L**3/T
     ------------------                 ------------------------

           IN:                                      IN:
           ---                                      ---
             STORAGE =        1393.7720               STORAGE =           0.2115
       CONSTANT HEAD =           0.0000         CONSTANT HEAD =           0.0000
       RIVER LEAKAGE =         124.8886         RIVER LEAKAGE =           0.8573
            RECHARGE =        1468.1237              RECHARGE =          12.8103

            TOTAL IN =        2986.7842              TOTAL IN =          13.8792

          OUT:                                     OUT:
          ----                                     ----
             STORAGE =         618.7333               STORAGE =          10.9032
       CONSTANT HEAD =         789.0015         CONSTANT HEAD =           2.9759
       RIVER LEAKAGE =         763.1215         RIVER LEAKAGE =           0.0000
            RECHARGE =         815.9280              RECHARGE =           0.0000

           TOTAL OUT =        2986.7844             TOTAL OUT =          13.8791

            IN - OUT =      -2.4414E-04              IN - OUT =       1.1826E-04

 PERCENT DISCREPANCY =          -0.00     PERCENT DISCREPANCY =           0.00






         TIME SUMMARY AT END OF TIME STEP    1 IN STRESS PERIOD  241
                    SECONDS     MINUTES      HOURS       DAYS        YEARS
                    -----------------------------------------------------------
   TIME STEP LENGTH  86400.      1440.0      24.000      1.0000     2.73785E-03
 STRESS PERIOD TIME  86400.      1440.0      24.000      1.0000     2.73785E-03
         TOTAL TIME 2.08224E+07 3.47040E+05  5784.0      241.00     0.65982    
1
1
                            STRESS PERIOD NO.  242, LENGTH =   1.000000    
                            -----------------------------------------------

                              NUMBER OF TIME STEPS =     1

                               MULTIPLIER FOR DELT =     1.000

                            INITIAL TIME STEP SIZE =   1.000000    

 REUSING NON-PARAMETER RIVER REACHES FROM LAST STRESS PERIOD

      2 RIVER REACHES

                 RECHARGE = -2.258621E-04
 
 SOLVING FOR HEAD 

 OUTPUT CONTROL FOR STRESS PERIOD  242   TIME STEP    1
    SAVE HEAD FOR ALL LAYERS

 HEAD WILL BE SAVED ON UNIT   51 AT END OF TIME STEP    1, STRESS PERIOD  242
1
  VOLUMETRIC BUDGET FOR ENTIRE MODEL AT END OF TIME STEP    1, STRESS PERIOD 242
  ------------------------------------------------------------------------------

     CUMULATIVE VOLUMES      L**3       RATES FOR THIS TIME STEP      L**3/T
     ------------------                 ------------------------

           IN:                                      IN:
           ---                                      ---
             STORAGE =        1397.8462               STORAGE =           4.0743
       CONSTANT HEAD =           0.0000         CONSTANT HEAD =           0.0000
       RIVER LEAKAGE =         126.0465         RIVER LEAKAGE =           1.1579
            RECHARGE =        1468.1237              RECHARGE =           0.0000

            TOTAL IN =        2992.0164              TOTAL IN =           5.2321

          OUT:                                     OUT:
          ----                                     ----
             STORAGE =         618.7333               STORAGE =           0.0000
       CONSTANT HEAD =         791.9749         CONSTANT HEAD =           2.9733
       RIVER LEAKAGE =         763.1215         RIVER LEAKAGE =           0.0000
            RECHARGE =         818.1866              RECHARGE =           2.2586

           TOTAL OUT =        2992.0161             TOTAL OUT =           5.2320

            IN - OUT =       2.4414E-04              IN - OUT =       1.7977E-04

 PERCENT DISCREPANCY =           0.00     PERCENT DISCREPANCY =           0.00






         TIME SUMMARY AT END OF TIME STEP    1 IN STRESS PERIOD  242
                    SECONDS     MINUTES      HOURS       DAYS        YEARS
                    -----------------------------------------------------------
   TIME STEP LENGTH  86400.      1440.0      24.000      1.0000     2.73785E-03
 STRESS PERIOD TIME  86400.      1440.0      24.000      1.0000     2.73785E-03
         TOTAL TIME 2.09088E+07 3.48480E+05  5808.0      242.00     0.66256    
1
1
                            STRESS PERIOD NO.  243, LENGTH =   1.000000    
                            -----------------------------------------------

                              NUMBER OF TIME STEPS =     1

                               MULTIPLIER FOR DELT =     1.000

                            INITIAL TIME STEP SIZE =   1.000000    

 REUSING NON-PARAMETER RIVER REACHES FROM LAST STRESS PERIOD

      2 RIVER REACHES

                 RECHARGE =  3.659483E-04
 
 SOLVING FOR HEAD 

 OUTPUT CONTROL FOR STRESS PERIOD  243   TIME STEP    1
    SAVE HEAD FOR ALL LAYERS

 HEAD WILL BE SAVED ON UNIT   51 AT END OF TIME STEP    1, STRESS PERIOD  243
1
  VOLUMETRIC BUDGET FOR ENTIRE MODEL AT END OF TIME STEP    1, STRESS PERIOD 243
  ------------------------------------------------------------------------------

     CUMULATIVE VOLUMES      L**3       RATES FOR THIS TIME STEP      L**3/T
     ------------------                 ------------------------

           IN:                                      IN:
           ---                                      ---
             STORAGE =        1398.0537               STORAGE =           0.2075
       CONSTANT HEAD =           0.0000         CONSTANT HEAD =           0.0000
       RIVER LEAKAGE =         127.1442         RIVER LEAKAGE =           1.0977
            RECHARGE =        1471.7831              RECHARGE =           3.6595

            TOTAL IN =        2996.9810              TOTAL IN =           4.9646

          OUT:                                     OUT:
          ----                                     ----
             STORAGE =         620.7268               STORAGE =           1.9935
       CONSTANT HEAD =         794.9457         CONSTANT HEAD =           2.9709
       RIVER LEAKAGE =         763.1215         RIVER LEAKAGE =           0.0000
            RECHARGE =         818.1866              RECHARGE =           0.0000

           TOTAL OUT =        2996.9810             TOTAL OUT =           4.9644

            IN - OUT =           0.0000              IN - OUT =       2.4605E-04

 PERCENT DISCREPANCY =           0.00     PERCENT DISCREPANCY =           0.00






         TIME SUMMARY AT END OF TIME STEP    1 IN STRESS PERIOD  243
                    SECONDS     MINUTES      HOURS       DAYS        YEARS
                    -----------------------------------------------------------
   TIME STEP LENGTH  86400.      1440.0      24.000      1.0000     2.73785E-03
 STRESS PERIOD TIME  86400.      1440.0      24.000      1.0000     2.73785E-03
         TOTAL TIME 2.09952E+07 3.49920E+05  5832.0      243.00     0.66530    
1
1
                            STRESS PERIOD NO.  244, LENGTH =   1.000000    
                            -----------------------------------------------

                              NUMBER OF TIME STEPS =     1

                               MULTIPLIER FOR DELT =     1.000

                            INITIAL TIME STEP SIZE =   1.000000    

 REUSING NON-PARAMETER RIVER REACHES FROM LAST STRESS PERIOD

      2 RIVER REACHES

                 RECHARGE =  1.982759E-04
 
 SOLVING FOR HEAD 

 OUTPUT CONTROL FOR STRESS PERIOD  244   TIME STEP    1
    SAVE HEAD FOR ALL LAYERS

 HEAD WILL BE SAVED ON UNIT   51 AT END OF TIME STEP    1, STRESS PERIOD  244
1
  VOLUMETRIC BUDGET FOR ENTIRE MODEL AT END OF TIME STEP    1, STRESS PERIOD 244
  ------------------------------------------------------------------------------

     CUMULATIVE VOLUMES      L**3       RATES FOR THIS TIME STEP      L**3/T
     ------------------                 ------------------------

           IN:                                      IN:
           ---                                      ---
             STORAGE =        1398.4016               STORAGE =           0.3479
       CONSTANT HEAD =           0.0000         CONSTANT HEAD =           0.0000
       RIVER LEAKAGE =         128.2682         RIVER LEAKAGE =           1.1240
            RECHARGE =        1473.7659              RECHARGE =           1.9828

            TOTAL IN =        3000.4355              TOTAL IN =           3.4547

          OUT:                                     OUT:
          ----                                     ----
             STORAGE =         621.2130               STORAGE =           0.4861
       CONSTANT HEAD =         797.9142         CONSTANT HEAD =           2.9684
       RIVER LEAKAGE =         763.1215         RIVER LEAKAGE =           0.0000
            RECHARGE =         818.1866              RECHARGE =           0.0000

           TOTAL OUT =        3000.4355             TOTAL OUT =           3.4546

            IN - OUT =           0.0000              IN - OUT =       1.2136E-04

 PERCENT DISCREPANCY =           0.00     PERCENT DISCREPANCY =           0.00






         TIME SUMMARY AT END OF TIME STEP    1 IN STRESS PERIOD  244
                    SECONDS     MINUTES      HOURS       DAYS        YEARS
                    -----------------------------------------------------------
   TIME STEP LENGTH  86400.      1440.0      24.000      1.0000     2.73785E-03
 STRESS PERIOD TIME  86400.      1440.0      24.000      1.0000     2.73785E-03
         TOTAL TIME 2.10816E+07 3.51360E+05  5856.0      244.00     0.66804    
1
1
                            STRESS PERIOD NO.  245, LENGTH =   1.000000    
                            -----------------------------------------------

                              NUMBER OF TIME STEPS =     1

                               MULTIPLIER FOR DELT =     1.000

                            INITIAL TIME STEP SIZE =   1.000000    

 REUSING NON-PARAMETER RIVER REACHES FROM LAST STRESS PERIOD

      2 RIVER REACHES

                 RECHARGE =  5.650862E-04
 
 SOLVING FOR HEAD 

 OUTPUT CONTROL FOR STRESS PERIOD  245   TIME STEP    1
    SAVE HEAD FOR ALL LAYERS

 HEAD WILL BE SAVED ON UNIT   51 AT END OF TIME STEP    1, STRESS PERIOD  245
1
  VOLUMETRIC BUDGET FOR ENTIRE MODEL AT END OF TIME STEP    1, STRESS PERIOD 245
  ------------------------------------------------------------------------------

     CUMULATIVE VOLUMES      L**3       RATES FOR THIS TIME STEP      L**3/T
     ------------------                 ------------------------

           IN:                                      IN:
           ---                                      ---
             STORAGE =        1398.6012               STORAGE =           0.1996
       CONSTANT HEAD =           0.0000         CONSTANT HEAD =           0.0000
       RIVER LEAKAGE =         129.2742         RIVER LEAKAGE =           1.0060
            RECHARGE =        1479.4167              RECHARGE =           5.6509

            TOTAL IN =        3007.2922              TOTAL IN =           6.8565

          OUT:                                     OUT:
          ----                                     ----
             STORAGE =         625.1035               STORAGE =           3.8905
       CONSTANT HEAD =         800.8803         CONSTANT HEAD =           2.9661
       RIVER LEAKAGE =         763.1215         RIVER LEAKAGE =           0.0000
            RECHARGE =         818.1866              RECHARGE =           0.0000

           TOTAL OUT =        3007.2920             TOTAL OUT =           6.8566

            IN - OUT =       2.4414E-04              IN - OUT =      -1.2970E-04

 PERCENT DISCREPANCY =           0.00     PERCENT DISCREPANCY =          -0.00






         TIME SUMMARY AT END OF TIME STEP    1 IN STRESS PERIOD  245
                    SECONDS     MINUTES      HOURS       DAYS        YEARS
                    -----------------------------------------------------------
   TIME STEP LENGTH  86400.      1440.0      24.000      1.0000     2.73785E-03
 STRESS PERIOD TIME  86400.      1440.0      24.000      1.0000     2.73785E-03
         TOTAL TIME 2.11680E+07 3.52800E+05  5880.0      245.00     0.67077    
1
1
                            STRESS PERIOD NO.  246, LENGTH =   1.000000    
                            -----------------------------------------------

                              NUMBER OF TIME STEPS =     1

                               MULTIPLIER FOR DELT =     1.000

                            INITIAL TIME STEP SIZE =   1.000000    

 REUSING NON-PARAMETER RIVER REACHES FROM LAST STRESS PERIOD

      2 RIVER REACHES

                 RECHARGE =  1.810345E-05
 
 SOLVING FOR HEAD 

 OUTPUT CONTROL FOR STRESS PERIOD  246   TIME STEP    1
    SAVE HEAD FOR ALL LAYERS

 HEAD WILL BE SAVED ON UNIT   51 AT END OF TIME STEP    1, STRESS PERIOD  246
1
  VOLUMETRIC BUDGET FOR ENTIRE MODEL AT END OF TIME STEP    1, STRESS PERIOD 246
  ------------------------------------------------------------------------------

     CUMULATIVE VOLUMES      L**3       RATES FOR THIS TIME STEP      L**3/T
     ------------------                 ------------------------

           IN:                                      IN:
           ---                                      ---
             STORAGE =        1400.2634               STORAGE =           1.6623
       CONSTANT HEAD =           0.0000         CONSTANT HEAD =           0.0000
       RIVER LEAKAGE =         130.3945         RIVER LEAKAGE =           1.1202
            RECHARGE =        1479.5978              RECHARGE =           0.1810

            TOTAL IN =        3010.2556              TOTAL IN =           2.9635

          OUT:                                     OUT:
          ----                                     ----
             STORAGE =         625.1035               STORAGE =           0.0000
       CONSTANT HEAD =         803.8440         CONSTANT HEAD =           2.9637
       RIVER LEAKAGE =         763.1215         RIVER LEAKAGE =           0.0000
            RECHARGE =         818.1866              RECHARGE =           0.0000

           TOTAL OUT =        3010.2559             TOTAL OUT =           2.9637

            IN - OUT =      -2.4414E-04              IN - OUT =      -1.6975E-04

 PERCENT DISCREPANCY =          -0.00     PERCENT DISCREPANCY =          -0.01






         TIME SUMMARY AT END OF TIME STEP    1 IN STRESS PERIOD  246
                    SECONDS     MINUTES      HOURS       DAYS        YEARS
                    -----------------------------------------------------------
   TIME STEP LENGTH  86400.      1440.0      24.000      1.0000     2.73785E-03
 STRESS PERIOD TIME  86400.      1440.0      24.000      1.0000     2.73785E-03
         TOTAL TIME 2.12544E+07 3.54240E+05  5904.0      246.00     0.67351    
1
1
                            STRESS PERIOD NO.  247, LENGTH =   1.000000    
                            -----------------------------------------------

                              NUMBER OF TIME STEPS =     1

                               MULTIPLIER FOR DELT =     1.000

                            INITIAL TIME STEP SIZE =   1.000000    

 REUSING NON-PARAMETER RIVER REACHES FROM LAST STRESS PERIOD

      2 RIVER REACHES

                 RECHARGE = -4.965517E-04
 
 SOLVING FOR HEAD 

 OUTPUT CONTROL FOR STRESS PERIOD  247   TIME STEP    1
    SAVE HEAD FOR ALL LAYERS

 HEAD WILL BE SAVED ON UNIT   51 AT END OF TIME STEP    1, STRESS PERIOD  247
1
  VOLUMETRIC BUDGET FOR ENTIRE MODEL AT END OF TIME STEP    1, STRESS PERIOD 247
  ------------------------------------------------------------------------------

     CUMULATIVE VOLUMES      L**3       RATES FOR THIS TIME STEP      L**3/T
     ------------------                 ------------------------

           IN:                                      IN:
           ---                                      ---
             STORAGE =        1406.8337               STORAGE =           6.5703
       CONSTANT HEAD =           0.0000         CONSTANT HEAD =           0.0000
       RIVER LEAKAGE =         131.7505         RIVER LEAKAGE =           1.3561
            RECHARGE =        1479.5978              RECHARGE =           0.0000

            TOTAL IN =        3018.1821              TOTAL IN =           7.9264

          OUT:                                     OUT:
          ----                                     ----
             STORAGE =         625.1035               STORAGE =           0.0000
       CONSTANT HEAD =         806.8051         CONSTANT HEAD =           2.9610
       RIVER LEAKAGE =         763.1215         RIVER LEAKAGE =           0.0000
            RECHARGE =         823.1522              RECHARGE =           4.9655

           TOTAL OUT =        3018.1821             TOTAL OUT =           7.9266

            IN - OUT =           0.0000              IN - OUT =      -2.0933E-04

 PERCENT DISCREPANCY =           0.00     PERCENT DISCREPANCY =          -0.00






         TIME SUMMARY AT END OF TIME STEP    1 IN STRESS PERIOD  247
                    SECONDS     MINUTES      HOURS       DAYS        YEARS
                    -----------------------------------------------------------
   TIME STEP LENGTH  86400.      1440.0      24.000      1.0000     2.73785E-03
 STRESS PERIOD TIME  86400.      1440.0      24.000      1.0000     2.73785E-03
         TOTAL TIME 2.13408E+07 3.55680E+05  5928.0      247.00     0.67625    
1
1
                            STRESS PERIOD NO.  248, LENGTH =   1.000000    
                            -----------------------------------------------

                              NUMBER OF TIME STEPS =     1

                               MULTIPLIER FOR DELT =     1.000

                            INITIAL TIME STEP SIZE =   1.000000    

 REUSING NON-PARAMETER RIVER REACHES FROM LAST STRESS PERIOD

      2 RIVER REACHES

                 RECHARGE = -6.422414E-05
 
 SOLVING FOR HEAD 

 OUTPUT CONTROL FOR STRESS PERIOD  248   TIME STEP    1
    SAVE HEAD FOR ALL LAYERS

 HEAD WILL BE SAVED ON UNIT   51 AT END OF TIME STEP    1, STRESS PERIOD  248
1
  VOLUMETRIC BUDGET FOR ENTIRE MODEL AT END OF TIME STEP    1, STRESS PERIOD 248
  ------------------------------------------------------------------------------

     CUMULATIVE VOLUMES      L**3       RATES FOR THIS TIME STEP      L**3/T
     ------------------                 ------------------------

           IN:                                      IN:
           ---                                      ---
             STORAGE =        1409.0797               STORAGE =           2.2460
       CONSTANT HEAD =           0.0000         CONSTANT HEAD =           0.0000
       RIVER LEAKAGE =         133.1053         RIVER LEAKAGE =           1.3548
            RECHARGE =        1479.5978              RECHARGE =           0.0000

            TOTAL IN =        3021.7827              TOTAL IN =           3.6008

          OUT:                                     OUT:
          ----                                     ----
             STORAGE =         625.1035               STORAGE =       3.1471E-05
       CONSTANT HEAD =         809.7635         CONSTANT HEAD =           2.9585
       RIVER LEAKAGE =         763.1215         RIVER LEAKAGE =           0.0000
            RECHARGE =         823.7944              RECHARGE =           0.6422

           TOTAL OUT =        3021.7830             TOTAL OUT =           3.6008

            IN - OUT =      -2.4414E-04              IN - OUT =       3.9339E-05

 PERCENT DISCREPANCY =          -0.00     PERCENT DISCREPANCY =           0.00






         TIME SUMMARY AT END OF TIME STEP    1 IN STRESS PERIOD  248
                    SECONDS     MINUTES      HOURS       DAYS        YEARS
                    -----------------------------------------------------------
   TIME STEP LENGTH  86400.      1440.0      24.000      1.0000     2.73785E-03
 STRESS PERIOD TIME  86400.      1440.0      24.000      1.0000     2.73785E-03
         TOTAL TIME 2.14272E+07 3.57120E+05  5952.0      248.00     0.67899    
1
1
                            STRESS PERIOD NO.  249, LENGTH =   1.000000    
                            -----------------------------------------------

                              NUMBER OF TIME STEPS =     1

                               MULTIPLIER FOR DELT =     1.000

                            INITIAL TIME STEP SIZE =   1.000000    

 REUSING NON-PARAMETER RIVER REACHES FROM LAST STRESS PERIOD

      2 RIVER REACHES

                 RECHARGE =  1.583190E-03
 
 SOLVING FOR HEAD 

 OUTPUT CONTROL FOR STRESS PERIOD  249   TIME STEP    1
    SAVE HEAD FOR ALL LAYERS

 HEAD WILL BE SAVED ON UNIT   51 AT END OF TIME STEP    1, STRESS PERIOD  249
1
  VOLUMETRIC BUDGET FOR ENTIRE MODEL AT END OF TIME STEP    1, STRESS PERIOD 249
  ------------------------------------------------------------------------------

     CUMULATIVE VOLUMES      L**3       RATES FOR THIS TIME STEP      L**3/T
     ------------------                 ------------------------

           IN:                                      IN:
           ---                                      ---
             STORAGE =        1409.2666               STORAGE =           0.1868
       CONSTANT HEAD =           0.0000         CONSTANT HEAD =           0.0000
       RIVER LEAKAGE =         133.9080         RIVER LEAKAGE =           0.8027
            RECHARGE =        1495.4297              RECHARGE =          15.8319

            TOTAL IN =        3038.6042              TOTAL IN =          16.8214

          OUT:                                     OUT:
          ----                                     ----
             STORAGE =         638.9684               STORAGE =          13.8649
       CONSTANT HEAD =         812.7200         CONSTANT HEAD =           2.9565
       RIVER LEAKAGE =         763.1215         RIVER LEAKAGE =           0.0000
            RECHARGE =         823.7944              RECHARGE =           0.0000

           TOTAL OUT =        3038.6045             TOTAL OUT =          16.8215

            IN - OUT =      -2.4414E-04              IN - OUT =      -5.5313E-05

 PERCENT DISCREPANCY =          -0.00     PERCENT DISCREPANCY =          -0.00






         TIME SUMMARY AT END OF TIME STEP    1 IN STRESS PERIOD  249
                    SECONDS     MINUTES      HOURS       DAYS        YEARS
                    -----------------------------------------------------------
   TIME STEP LENGTH  86400.      1440.0      24.000      1.0000     2.73785E-03
 STRESS PERIOD TIME  86400.      1440.0      24.000      1.0000     2.73785E-03
         TOTAL TIME 2.15136E+07 3.58560E+05  5976.0      249.00     0.68172    
1
1
                            STRESS PERIOD NO.  250, LENGTH =   1.000000    
                            -----------------------------------------------

                              NUMBER OF TIME STEPS =     1

                               MULTIPLIER FOR DELT =     1.000

                            INITIAL TIME STEP SIZE =   1.000000    

 REUSING NON-PARAMETER RIVER REACHES FROM LAST STRESS PERIOD

      2 RIVER REACHES

                 RECHARGE =  8.112069E-04
 
 SOLVING FOR HEAD 

 OUTPUT CONTROL FOR STRESS PERIOD  250   TIME STEP    1
    SAVE HEAD FOR ALL LAYERS

 HEAD WILL BE SAVED ON UNIT   51 AT END OF TIME STEP    1, STRESS PERIOD  250
1
  VOLUMETRIC BUDGET FOR ENTIRE MODEL AT END OF TIME STEP    1, STRESS PERIOD 250
  ------------------------------------------------------------------------------

     CUMULATIVE VOLUMES      L**3       RATES FOR THIS TIME STEP      L**3/T
     ------------------                 ------------------------

           IN:                                      IN:
           ---                                      ---
             STORAGE =        1409.4473               STORAGE =           0.1807
       CONSTANT HEAD =           0.0000         CONSTANT HEAD =           0.0000
       RIVER LEAKAGE =         134.6457         RIVER LEAKAGE =           0.7377
            RECHARGE =        1503.5417              RECHARGE =           8.1121

            TOTAL IN =        3047.6348              TOTAL IN =           9.0305

          OUT:                                     OUT:
          ----                                     ----
             STORAGE =         645.0443               STORAGE =           6.0758
       CONSTANT HEAD =         815.6746         CONSTANT HEAD =           2.9545
       RIVER LEAKAGE =         763.1215         RIVER LEAKAGE =           0.0000
            RECHARGE =         823.7944              RECHARGE =           0.0000

           TOTAL OUT =        3047.6348             TOTAL OUT =           9.0304

            IN - OUT =           0.0000              IN - OUT =       1.0300E-04

 PERCENT DISCREPANCY =           0.00     PERCENT DISCREPANCY =           0.00






         TIME SUMMARY AT END OF TIME STEP    1 IN STRESS PERIOD  250
                    SECONDS     MINUTES      HOURS       DAYS        YEARS
                    -----------------------------------------------------------
   TIME STEP LENGTH  86400.      1440.0      24.000      1.0000     2.73785E-03
 STRESS PERIOD TIME  86400.      1440.0      24.000      1.0000     2.73785E-03
         TOTAL TIME 2.16000E+07 3.60000E+05  6000.0      250.00     0.68446    
1
1
                            STRESS PERIOD NO.  251, LENGTH =   1.000000    
                            -----------------------------------------------

                              NUMBER OF TIME STEPS =     1

                               MULTIPLIER FOR DELT =     1.000

                            INITIAL TIME STEP SIZE =   1.000000    

 REUSING NON-PARAMETER RIVER REACHES FROM LAST STRESS PERIOD

      2 RIVER REACHES

                 RECHARGE =  1.831897E-04
 
 SOLVING FOR HEAD 

 OUTPUT CONTROL FOR STRESS PERIOD  251   TIME STEP    1
    SAVE HEAD FOR ALL LAYERS

 HEAD WILL BE SAVED ON UNIT   51 AT END OF TIME STEP    1, STRESS PERIOD  251
1
  VOLUMETRIC BUDGET FOR ENTIRE MODEL AT END OF TIME STEP    1, STRESS PERIOD 251
  ------------------------------------------------------------------------------

     CUMULATIVE VOLUMES      L**3       RATES FOR THIS TIME STEP      L**3/T
     ------------------                 ------------------------

           IN:                                      IN:
           ---                                      ---
             STORAGE =        1409.9434               STORAGE =           0.4961
       CONSTANT HEAD =           0.0000         CONSTANT HEAD =           0.0000
       RIVER LEAKAGE =         135.5151         RIVER LEAKAGE =           0.8694
            RECHARGE =        1505.3737              RECHARGE =           1.8319

            TOTAL IN =        3050.8320              TOTAL IN =           3.1974

          OUT:                                     OUT:
          ----                                     ----
             STORAGE =         645.2894               STORAGE =           0.2451
       CONSTANT HEAD =         818.6270         CONSTANT HEAD =           2.9524
       RIVER LEAKAGE =         763.1215         RIVER LEAKAGE =           0.0000
            RECHARGE =         823.7944              RECHARGE =           0.0000

           TOTAL OUT =        3050.8323             TOTAL OUT =           3.1975

            IN - OUT =      -2.4414E-04              IN - OUT =      -1.3161E-04

 PERCENT DISCREPANCY =          -0.00     PERCENT DISCREPANCY =          -0.00






         TIME SUMMARY AT END OF TIME STEP    1 IN STRESS PERIOD  251
                    SECONDS     MINUTES      HOURS       DAYS        YEARS
                    -----------------------------------------------------------
   TIME STEP LENGTH  86400.      1440.0      24.000      1.0000     2.73785E-03
 STRESS PERIOD TIME  86400.      1440.0      24.000      1.0000     2.73785E-03
         TOTAL TIME 2.16864E+07 3.61440E+05  6024.0      251.00     0.68720    
1
1
                            STRESS PERIOD NO.  252, LENGTH =   1.000000    
                            -----------------------------------------------

                              NUMBER OF TIME STEPS =     1

                               MULTIPLIER FOR DELT =     1.000

                            INITIAL TIME STEP SIZE =   1.000000    

 REUSING NON-PARAMETER RIVER REACHES FROM LAST STRESS PERIOD

      2 RIVER REACHES

                 RECHARGE =  4.237069E-04
 
 SOLVING FOR HEAD 

 OUTPUT CONTROL FOR STRESS PERIOD  252   TIME STEP    1
    SAVE HEAD FOR ALL LAYERS

 HEAD WILL BE SAVED ON UNIT   51 AT END OF TIME STEP    1, STRESS PERIOD  252
1
  VOLUMETRIC BUDGET FOR ENTIRE MODEL AT END OF TIME STEP    1, STRESS PERIOD 252
  ------------------------------------------------------------------------------

     CUMULATIVE VOLUMES      L**3       RATES FOR THIS TIME STEP      L**3/T
     ------------------                 ------------------------

           IN:                                      IN:
           ---                                      ---
             STORAGE =        1410.1182               STORAGE =           0.1748
       CONSTANT HEAD =           0.0000         CONSTANT HEAD =           0.0000
       RIVER LEAKAGE =         136.3541         RIVER LEAKAGE =           0.8391
            RECHARGE =        1509.6107              RECHARGE =           4.2371

            TOTAL IN =        3056.0830              TOTAL IN =           5.2509

          OUT:                                     OUT:
          ----                                     ----
             STORAGE =         647.5900               STORAGE =           2.3007
       CONSTANT HEAD =         821.5773         CONSTANT HEAD =           2.9504
       RIVER LEAKAGE =         763.1215         RIVER LEAKAGE =           0.0000
            RECHARGE =         823.7944              RECHARGE =           0.0000

           TOTAL OUT =        3056.0833             TOTAL OUT =           5.2510

            IN - OUT =      -2.4414E-04              IN - OUT =      -9.3937E-05

 PERCENT DISCREPANCY =          -0.00     PERCENT DISCREPANCY =          -0.00






         TIME SUMMARY AT END OF TIME STEP    1 IN STRESS PERIOD  252
                    SECONDS     MINUTES      HOURS       DAYS        YEARS
                    -----------------------------------------------------------
   TIME STEP LENGTH  86400.      1440.0      24.000      1.0000     2.73785E-03
 STRESS PERIOD TIME  86400.      1440.0      24.000      1.0000     2.73785E-03
         TOTAL TIME 2.17728E+07 3.62880E+05  6048.0      252.00     0.68994    
1
1
                            STRESS PERIOD NO.  253, LENGTH =   1.000000    
                            -----------------------------------------------

                              NUMBER OF TIME STEPS =     1

                               MULTIPLIER FOR DELT =     1.000

                            INITIAL TIME STEP SIZE =   1.000000    

 REUSING NON-PARAMETER RIVER REACHES FROM LAST STRESS PERIOD

      2 RIVER REACHES

                 RECHARGE =  5.431035E-05
 
 SOLVING FOR HEAD 

 OUTPUT CONTROL FOR STRESS PERIOD  253   TIME STEP    1
    SAVE HEAD FOR ALL LAYERS

 HEAD WILL BE SAVED ON UNIT   51 AT END OF TIME STEP    1, STRESS PERIOD  253
1
  VOLUMETRIC BUDGET FOR ENTIRE MODEL AT END OF TIME STEP    1, STRESS PERIOD 253
  ------------------------------------------------------------------------------

     CUMULATIVE VOLUMES      L**3       RATES FOR THIS TIME STEP      L**3/T
     ------------------                 ------------------------

           IN:                                      IN:
           ---                                      ---
             STORAGE =        1411.5790               STORAGE =           1.4608
       CONSTANT HEAD =           0.0000         CONSTANT HEAD =           0.0000
       RIVER LEAKAGE =         137.2984         RIVER LEAKAGE =           0.9442
            RECHARGE =        1510.1538              RECHARGE =           0.5431

            TOTAL IN =        3059.0312              TOTAL IN =           2.9482

          OUT:                                     OUT:
          ----                                     ----
             STORAGE =         647.5900               STORAGE =           0.0000
       CONSTANT HEAD =         824.5256         CONSTANT HEAD =           2.9482
       RIVER LEAKAGE =         763.1215         RIVER LEAKAGE =           0.0000
            RECHARGE =         823.7944              RECHARGE =           0.0000

           TOTAL OUT =        3059.0315             TOTAL OUT =           2.9482

            IN - OUT =      -2.4414E-04              IN - OUT =      -3.1710E-05

 PERCENT DISCREPANCY =          -0.00     PERCENT DISCREPANCY =          -0.00






         TIME SUMMARY AT END OF TIME STEP    1 IN STRESS PERIOD  253
                    SECONDS     MINUTES      HOURS       DAYS        YEARS
                    -----------------------------------------------------------
   TIME STEP LENGTH  86400.      1440.0      24.000      1.0000     2.73785E-03
 STRESS PERIOD TIME  86400.      1440.0      24.000      1.0000     2.73785E-03
         TOTAL TIME 2.18592E+07 3.64320E+05  6072.0      253.00     0.69268    
1
1
                            STRESS PERIOD NO.  254, LENGTH =   1.000000    
                            -----------------------------------------------

                              NUMBER OF TIME STEPS =     1

                               MULTIPLIER FOR DELT =     1.000

                            INITIAL TIME STEP SIZE =   1.000000    

 REUSING NON-PARAMETER RIVER REACHES FROM LAST STRESS PERIOD

      2 RIVER REACHES

                 RECHARGE =  4.534483E-04
 
 SOLVING FOR HEAD 

 OUTPUT CONTROL FOR STRESS PERIOD  254   TIME STEP    1
    SAVE HEAD FOR ALL LAYERS

 HEAD WILL BE SAVED ON UNIT   51 AT END OF TIME STEP    1, STRESS PERIOD  254
1
  VOLUMETRIC BUDGET FOR ENTIRE MODEL AT END OF TIME STEP    1, STRESS PERIOD 254
  ------------------------------------------------------------------------------

     CUMULATIVE VOLUMES      L**3       RATES FOR THIS TIME STEP      L**3/T
     ------------------                 ------------------------

           IN:                                      IN:
           ---                                      ---
             STORAGE =        1411.7485               STORAGE =           0.1695
       CONSTANT HEAD =           0.0000         CONSTANT HEAD =           0.0000
       RIVER LEAKAGE =         138.1610         RIVER LEAKAGE =           0.8626
            RECHARGE =        1514.6882              RECHARGE =           4.5345

            TOTAL IN =        3064.5977              TOTAL IN =           5.5666

          OUT:                                     OUT:
          ----                                     ----
             STORAGE =         650.2105               STORAGE =           2.6205
       CONSTANT HEAD =         827.4717         CONSTANT HEAD =           2.9462
       RIVER LEAKAGE =         763.1215         RIVER LEAKAGE =           0.0000
            RECHARGE =         823.7944              RECHARGE =           0.0000

           TOTAL OUT =        3064.5981             TOTAL OUT =           5.5667

            IN - OUT =      -4.8828E-04              IN - OUT =      -9.4891E-05

 PERCENT DISCREPANCY =          -0.00     PERCENT DISCREPANCY =          -0.00






         TIME SUMMARY AT END OF TIME STEP    1 IN STRESS PERIOD  254
                    SECONDS     MINUTES      HOURS       DAYS        YEARS
                    -----------------------------------------------------------
   TIME STEP LENGTH  86400.      1440.0      24.000      1.0000     2.73785E-03
 STRESS PERIOD TIME  86400.      1440.0      24.000      1.0000     2.73785E-03
         TOTAL TIME 2.19456E+07 3.65760E+05  6096.0      254.00     0.69541    
1
1
                            STRESS PERIOD NO.  255, LENGTH =   1.000000    
                            -----------------------------------------------

                              NUMBER OF TIME STEPS =     1

                               MULTIPLIER FOR DELT =     1.000

                            INITIAL TIME STEP SIZE =   1.000000    

 REUSING NON-PARAMETER RIVER REACHES FROM LAST STRESS PERIOD

      2 RIVER REACHES

                 RECHARGE =  2.982759E-04
 
 SOLVING FOR HEAD 

 OUTPUT CONTROL FOR STRESS PERIOD  255   TIME STEP    1
    SAVE HEAD FOR ALL LAYERS

 HEAD WILL BE SAVED ON UNIT   51 AT END OF TIME STEP    1, STRESS PERIOD  255
1
  VOLUMETRIC BUDGET FOR ENTIRE MODEL AT END OF TIME STEP    1, STRESS PERIOD 255
  ------------------------------------------------------------------------------

     CUMULATIVE VOLUMES      L**3       RATES FOR THIS TIME STEP      L**3/T
     ------------------                 ------------------------

           IN:                                      IN:
           ---                                      ---
             STORAGE =        1411.9169               STORAGE =           0.1683
       CONSTANT HEAD =           0.0000         CONSTANT HEAD =           0.0000
       RIVER LEAKAGE =         139.0307         RIVER LEAKAGE =           0.8697
            RECHARGE =        1517.6710              RECHARGE =           2.9828

            TOTAL IN =        3068.6187              TOTAL IN =           4.0207

          OUT:                                     OUT:
          ----                                     ----
             STORAGE =         651.2869               STORAGE =           1.0764
       CONSTANT HEAD =         830.4159         CONSTANT HEAD =           2.9442
       RIVER LEAKAGE =         763.1215         RIVER LEAKAGE =           0.0000
            RECHARGE =         823.7944              RECHARGE =           0.0000

           TOTAL OUT =        3068.6189             TOTAL OUT =           4.0206

            IN - OUT =      -2.4414E-04              IN - OUT =       1.1921E-04

 PERCENT DISCREPANCY =          -0.00     PERCENT DISCREPANCY =           0.00






         TIME SUMMARY AT END OF TIME STEP    1 IN STRESS PERIOD  255
                    SECONDS     MINUTES      HOURS       DAYS        YEARS
                    -----------------------------------------------------------
   TIME STEP LENGTH  86400.      1440.0      24.000      1.0000     2.73785E-03
 STRESS PERIOD TIME  86400.      1440.0      24.000      1.0000     2.73785E-03
         TOTAL TIME 2.20320E+07 3.67200E+05  6120.0      255.00     0.69815    
1
1
                            STRESS PERIOD NO.  256, LENGTH =   1.000000    
                            -----------------------------------------------

                              NUMBER OF TIME STEPS =     1

                               MULTIPLIER FOR DELT =     1.000

                            INITIAL TIME STEP SIZE =   1.000000    

 REUSING NON-PARAMETER RIVER REACHES FROM LAST STRESS PERIOD

      2 RIVER REACHES

                 RECHARGE =  1.267672E-03
 
 SOLVING FOR HEAD 

 OUTPUT CONTROL FOR STRESS PERIOD  256   TIME STEP    1
    SAVE HEAD FOR ALL LAYERS

 HEAD WILL BE SAVED ON UNIT   51 AT END OF TIME STEP    1, STRESS PERIOD  256
1
  VOLUMETRIC BUDGET FOR ENTIRE MODEL AT END OF TIME STEP    1, STRESS PERIOD 256
  ------------------------------------------------------------------------------

     CUMULATIVE VOLUMES      L**3       RATES FOR THIS TIME STEP      L**3/T
     ------------------                 ------------------------

           IN:                                      IN:
           ---                                      ---
             STORAGE =        1412.0748               STORAGE =           0.1580
       CONSTANT HEAD =           0.0000         CONSTANT HEAD =           0.0000
       RIVER LEAKAGE =         139.5599         RIVER LEAKAGE =           0.5293
            RECHARGE =        1530.3478              RECHARGE =          12.6767

            TOTAL IN =        3081.9824              TOTAL IN =          13.3639

          OUT:                                     OUT:
          ----                                     ----
             STORAGE =         661.7083               STORAGE =          10.4214
       CONSTANT HEAD =         833.3584         CONSTANT HEAD =           2.9425
       RIVER LEAKAGE =         763.1215         RIVER LEAKAGE =           0.0000
            RECHARGE =         823.7944              RECHARGE =           0.0000

           TOTAL OUT =        3081.9827             TOTAL OUT =          13.3639

            IN - OUT =      -2.4414E-04              IN - OUT =       5.0545E-05

 PERCENT DISCREPANCY =          -0.00     PERCENT DISCREPANCY =           0.00






         TIME SUMMARY AT END OF TIME STEP    1 IN STRESS PERIOD  256
                    SECONDS     MINUTES      HOURS       DAYS        YEARS
                    -----------------------------------------------------------
   TIME STEP LENGTH  86400.      1440.0      24.000      1.0000     2.73785E-03
 STRESS PERIOD TIME  86400.      1440.0      24.000      1.0000     2.73785E-03
         TOTAL TIME 2.21184E+07 3.68640E+05  6144.0      256.00     0.70089    
1
1
                            STRESS PERIOD NO.  257, LENGTH =   1.000000    
                            -----------------------------------------------

                              NUMBER OF TIME STEPS =     1

                               MULTIPLIER FOR DELT =     1.000

                            INITIAL TIME STEP SIZE =   1.000000    

 REUSING NON-PARAMETER RIVER REACHES FROM LAST STRESS PERIOD

      2 RIVER REACHES

                 RECHARGE =  3.969828E-04
 
 SOLVING FOR HEAD 

 OUTPUT CONTROL FOR STRESS PERIOD  257   TIME STEP    1
    SAVE HEAD FOR ALL LAYERS

 HEAD WILL BE SAVED ON UNIT   51 AT END OF TIME STEP    1, STRESS PERIOD  257
1
  VOLUMETRIC BUDGET FOR ENTIRE MODEL AT END OF TIME STEP    1, STRESS PERIOD 257
  ------------------------------------------------------------------------------

     CUMULATIVE VOLUMES      L**3       RATES FOR THIS TIME STEP      L**3/T
     ------------------                 ------------------------

           IN:                                      IN:
           ---                                      ---
             STORAGE =        1412.2874               STORAGE =           0.2125
       CONSTANT HEAD =           0.0000         CONSTANT HEAD =           0.0000
       RIVER LEAKAGE =         140.1764         RIVER LEAKAGE =           0.6165
            RECHARGE =        1534.3176              RECHARGE =           3.9698

            TOTAL IN =        3086.7812              TOTAL IN =           4.7988

          OUT:                                     OUT:
          ----                                     ----
             STORAGE =         663.5662               STORAGE =           1.8579
       CONSTANT HEAD =         836.2991         CONSTANT HEAD =           2.9407
       RIVER LEAKAGE =         763.1215         RIVER LEAKAGE =           0.0000
            RECHARGE =         823.7944              RECHARGE =           0.0000

           TOTAL OUT =        3086.7812             TOTAL OUT =           4.7987

            IN - OUT =           0.0000              IN - OUT =       1.5020E-04

 PERCENT DISCREPANCY =           0.00     PERCENT DISCREPANCY =           0.00






         TIME SUMMARY AT END OF TIME STEP    1 IN STRESS PERIOD  257
                    SECONDS     MINUTES      HOURS       DAYS        YEARS
                    -----------------------------------------------------------
   TIME STEP LENGTH  86400.      1440.0      24.000      1.0000     2.73785E-03
 STRESS PERIOD TIME  86400.      1440.0      24.000      1.0000     2.73785E-03
         TOTAL TIME 2.22048E+07 3.70080E+05  6168.0      257.00     0.70363    
1
1
                            STRESS PERIOD NO.  258, LENGTH =   1.000000    
                            -----------------------------------------------

                              NUMBER OF TIME STEPS =     1

                               MULTIPLIER FOR DELT =     1.000

                            INITIAL TIME STEP SIZE =   1.000000    

 REUSING NON-PARAMETER RIVER REACHES FROM LAST STRESS PERIOD

      2 RIVER REACHES

                 RECHARGE =  1.558621E-03
 
 SOLVING FOR HEAD 

 OUTPUT CONTROL FOR STRESS PERIOD  258   TIME STEP    1
    SAVE HEAD FOR ALL LAYERS

 HEAD WILL BE SAVED ON UNIT   51 AT END OF TIME STEP    1, STRESS PERIOD  258
1
  VOLUMETRIC BUDGET FOR ENTIRE MODEL AT END OF TIME STEP    1, STRESS PERIOD 258
  ------------------------------------------------------------------------------

     CUMULATIVE VOLUMES      L**3       RATES FOR THIS TIME STEP      L**3/T
     ------------------                 ------------------------

           IN:                                      IN:
           ---                                      ---
             STORAGE =        1412.4320               STORAGE =           0.1447
       CONSTANT HEAD =           0.0000         CONSTANT HEAD =           0.0000
       RIVER LEAKAGE =         140.4076         RIVER LEAKAGE =           0.2312
            RECHARGE =        1549.9038              RECHARGE =          15.5862

            TOTAL IN =        3102.7434              TOTAL IN =          15.9621

          OUT:                                     OUT:
          ----                                     ----
             STORAGE =         676.5891               STORAGE =          13.0229
       CONSTANT HEAD =         839.2385         CONSTANT HEAD =           2.9394
       RIVER LEAKAGE =         763.1215         RIVER LEAKAGE =           0.0000
            RECHARGE =         823.7944              RECHARGE =           0.0000

           TOTAL OUT =        3102.7437             TOTAL OUT =          15.9623

            IN - OUT =      -2.4414E-04              IN - OUT =      -1.7071E-04

 PERCENT DISCREPANCY =          -0.00     PERCENT DISCREPANCY =          -0.00






         TIME SUMMARY AT END OF TIME STEP    1 IN STRESS PERIOD  258
                    SECONDS     MINUTES      HOURS       DAYS        YEARS
                    -----------------------------------------------------------
   TIME STEP LENGTH  86400.      1440.0      24.000      1.0000     2.73785E-03
 STRESS PERIOD TIME  86400.      1440.0      24.000      1.0000     2.73785E-03
         TOTAL TIME 2.22912E+07 3.71520E+05  6192.0      258.00     0.70637    
1
1
                            STRESS PERIOD NO.  259, LENGTH =   1.000000    
                            -----------------------------------------------

                              NUMBER OF TIME STEPS =     1

                               MULTIPLIER FOR DELT =     1.000

                            INITIAL TIME STEP SIZE =   1.000000    

 REUSING NON-PARAMETER RIVER REACHES FROM LAST STRESS PERIOD

      2 RIVER REACHES

                 RECHARGE =  1.157759E-03
 
 SOLVING FOR HEAD 

 OUTPUT CONTROL FOR STRESS PERIOD  259   TIME STEP    1
    SAVE HEAD FOR ALL LAYERS

 HEAD WILL BE SAVED ON UNIT   51 AT END OF TIME STEP    1, STRESS PERIOD  259
1
  VOLUMETRIC BUDGET FOR ENTIRE MODEL AT END OF TIME STEP    1, STRESS PERIOD 259
  ------------------------------------------------------------------------------

     CUMULATIVE VOLUMES      L**3       RATES FOR THIS TIME STEP      L**3/T
     ------------------                 ------------------------

           IN:                                      IN:
           ---                                      ---
             STORAGE =        1412.5693               STORAGE =           0.1374
       CONSTANT HEAD =           0.0000         CONSTANT HEAD =           0.0000
       RIVER LEAKAGE =         140.5282         RIVER LEAKAGE =           0.1206
            RECHARGE =        1561.4814              RECHARGE =          11.5776

            TOTAL IN =        3114.5791              TOTAL IN =          11.8356

          OUT:                                     OUT:
          ----                                     ----
             STORAGE =         685.4866               STORAGE =           8.8975
       CONSTANT HEAD =         842.1766         CONSTANT HEAD =           2.9380
       RIVER LEAKAGE =         763.1215         RIVER LEAKAGE =           0.0000
            RECHARGE =         823.7944              RECHARGE =           0.0000

           TOTAL OUT =        3114.5791             TOTAL OUT =          11.8355

            IN - OUT =           0.0000              IN - OUT =       2.4796E-05

 PERCENT DISCREPANCY =           0.00     PERCENT DISCREPANCY =           0.00






         TIME SUMMARY AT END OF TIME STEP    1 IN STRESS PERIOD  259
                    SECONDS     MINUTES      HOURS       DAYS        YEARS
                    -----------------------------------------------------------
   TIME STEP LENGTH  86400.      1440.0      24.000      1.0000     2.73785E-03
 STRESS PERIOD TIME  86400.      1440.0      24.000      1.0000     2.73785E-03
         TOTAL TIME 2.23776E+07 3.72960E+05  6216.0      259.00     0.70910    
1
1
                            STRESS PERIOD NO.  260, LENGTH =   1.000000    
                            -----------------------------------------------

                              NUMBER OF TIME STEPS =     1

                               MULTIPLIER FOR DELT =     1.000

                            INITIAL TIME STEP SIZE =   1.000000    

 REUSING NON-PARAMETER RIVER REACHES FROM LAST STRESS PERIOD

      2 RIVER REACHES

                 RECHARGE =  2.425431E-03
 
 SOLVING FOR HEAD 

 OUTPUT CONTROL FOR STRESS PERIOD  260   TIME STEP    1
    SAVE HEAD FOR ALL LAYERS

 HEAD WILL BE SAVED ON UNIT   51 AT END OF TIME STEP    1, STRESS PERIOD  260
1
  VOLUMETRIC BUDGET FOR ENTIRE MODEL AT END OF TIME STEP    1, STRESS PERIOD 260
  ------------------------------------------------------------------------------

     CUMULATIVE VOLUMES      L**3       RATES FOR THIS TIME STEP      L**3/T
     ------------------                 ------------------------

           IN:                                      IN:
           ---                                      ---
             STORAGE =        1412.6919               STORAGE =           0.1225
       CONSTANT HEAD =           0.0000         CONSTANT HEAD =           0.0000
       RIVER LEAKAGE =         140.5282         RIVER LEAKAGE =           0.0000
            RECHARGE =        1585.7357              RECHARGE =          24.2543

            TOTAL IN =        3138.9558              TOTAL IN =          24.3768

          OUT:                                     OUT:
          ----                                     ----
             STORAGE =         706.4919               STORAGE =          21.0053
       CONSTANT HEAD =         845.1138         CONSTANT HEAD =           2.9373
       RIVER LEAKAGE =         763.5558         RIVER LEAKAGE =           0.4343
            RECHARGE =         823.7944              RECHARGE =           0.0000

           TOTAL OUT =        3138.9561             TOTAL OUT =          24.3768

            IN - OUT =      -2.4414E-04              IN - OUT =      -1.9073E-05

 PERCENT DISCREPANCY =          -0.00     PERCENT DISCREPANCY =          -0.00






         TIME SUMMARY AT END OF TIME STEP    1 IN STRESS PERIOD  260
                    SECONDS     MINUTES      HOURS       DAYS        YEARS
                    -----------------------------------------------------------
   TIME STEP LENGTH  86400.      1440.0      24.000      1.0000     2.73785E-03
 STRESS PERIOD TIME  86400.      1440.0      24.000      1.0000     2.73785E-03
         TOTAL TIME 2.24640E+07 3.74400E+05  6240.0      260.00     0.71184    
1
1
                            STRESS PERIOD NO.  261, LENGTH =   1.000000    
                            -----------------------------------------------

                              NUMBER OF TIME STEPS =     1

                               MULTIPLIER FOR DELT =     1.000

                            INITIAL TIME STEP SIZE =   1.000000    

 REUSING NON-PARAMETER RIVER REACHES FROM LAST STRESS PERIOD

      2 RIVER REACHES

                 RECHARGE =  2.366810E-03
 
 SOLVING FOR HEAD 

 OUTPUT CONTROL FOR STRESS PERIOD  261   TIME STEP    1
    SAVE HEAD FOR ALL LAYERS

 HEAD WILL BE SAVED ON UNIT   51 AT END OF TIME STEP    1, STRESS PERIOD  261
1
  VOLUMETRIC BUDGET FOR ENTIRE MODEL AT END OF TIME STEP    1, STRESS PERIOD 261
  ------------------------------------------------------------------------------

     CUMULATIVE VOLUMES      L**3       RATES FOR THIS TIME STEP      L**3/T
     ------------------                 ------------------------

           IN:                                      IN:
           ---                                      ---
             STORAGE =        1412.8005               STORAGE =           0.1086
       CONSTANT HEAD =           0.0000         CONSTANT HEAD =           0.0000
       RIVER LEAKAGE =         140.5282         RIVER LEAKAGE =           0.0000
            RECHARGE =        1609.4038              RECHARGE =          23.6681

            TOTAL IN =        3162.7324              TOTAL IN =          23.7767

          OUT:                                     OUT:
          ----                                     ----
             STORAGE =         726.5378               STORAGE =          20.0459
       CONSTANT HEAD =         848.0506         CONSTANT HEAD =           2.9368
       RIVER LEAKAGE =         764.3500         RIVER LEAKAGE =           0.7942
            RECHARGE =         823.7944              RECHARGE =           0.0000

           TOTAL OUT =        3162.7329             TOTAL OUT =          23.7769

            IN - OUT =      -4.8828E-04              IN - OUT =      -2.1744E-04

 PERCENT DISCREPANCY =          -0.00     PERCENT DISCREPANCY =          -0.00






         TIME SUMMARY AT END OF TIME STEP    1 IN STRESS PERIOD  261
                    SECONDS     MINUTES      HOURS       DAYS        YEARS
                    -----------------------------------------------------------
   TIME STEP LENGTH  86400.      1440.0      24.000      1.0000     2.73785E-03
 STRESS PERIOD TIME  86400.      1440.0      24.000      1.0000     2.73785E-03
         TOTAL TIME 2.25504E+07 3.75840E+05  6264.0      261.00     0.71458    
1
1
                            STRESS PERIOD NO.  262, LENGTH =   1.000000    
                            -----------------------------------------------

                              NUMBER OF TIME STEPS =     1

                               MULTIPLIER FOR DELT =     1.000

                            INITIAL TIME STEP SIZE =   1.000000    

 REUSING NON-PARAMETER RIVER REACHES FROM LAST STRESS PERIOD

      2 RIVER REACHES

                 RECHARGE =  1.068966E-03
 
 SOLVING FOR HEAD 

 OUTPUT CONTROL FOR STRESS PERIOD  262   TIME STEP    1
    SAVE HEAD FOR ALL LAYERS

 HEAD WILL BE SAVED ON UNIT   51 AT END OF TIME STEP    1, STRESS PERIOD  262
1
  VOLUMETRIC BUDGET FOR ENTIRE MODEL AT END OF TIME STEP    1, STRESS PERIOD 262
  ------------------------------------------------------------------------------

     CUMULATIVE VOLUMES      L**3       RATES FOR THIS TIME STEP      L**3/T
     ------------------                 ------------------------

           IN:                                      IN:
           ---                                      ---
             STORAGE =        1412.9929               STORAGE =           0.1924
       CONSTANT HEAD =           0.0000         CONSTANT HEAD =           0.0000
       RIVER LEAKAGE =         140.5282         RIVER LEAKAGE =           0.0000
            RECHARGE =        1620.0935              RECHARGE =          10.6897

            TOTAL IN =        3173.6147              TOTAL IN =          10.8821

          OUT:                                     OUT:
          ----                                     ----
             STORAGE =         733.8441               STORAGE =           7.3063
       CONSTANT HEAD =         850.9866         CONSTANT HEAD =           2.9360
       RIVER LEAKAGE =         764.9898         RIVER LEAKAGE =           0.6398
            RECHARGE =         823.7944              RECHARGE =           0.0000

           TOTAL OUT =        3173.6150             TOTAL OUT =          10.8821

            IN - OUT =      -2.4414E-04              IN - OUT =      -2.9564E-05

 PERCENT DISCREPANCY =          -0.00     PERCENT DISCREPANCY =          -0.00






         TIME SUMMARY AT END OF TIME STEP    1 IN STRESS PERIOD  262
                    SECONDS     MINUTES      HOURS       DAYS        YEARS
                    -----------------------------------------------------------
   TIME STEP LENGTH  86400.      1440.0      24.000      1.0000     2.73785E-03
 STRESS PERIOD TIME  86400.      1440.0      24.000      1.0000     2.73785E-03
         TOTAL TIME 2.26368E+07 3.77280E+05  6288.0      262.00     0.71732    
1
1
                            STRESS PERIOD NO.  263, LENGTH =   1.000000    
                            -----------------------------------------------

                              NUMBER OF TIME STEPS =     1

                               MULTIPLIER FOR DELT =     1.000

                            INITIAL TIME STEP SIZE =   1.000000    

 REUSING NON-PARAMETER RIVER REACHES FROM LAST STRESS PERIOD

      2 RIVER REACHES

                 RECHARGE =  8.926724E-04
 
 SOLVING FOR HEAD 

 OUTPUT CONTROL FOR STRESS PERIOD  263   TIME STEP    1
    SAVE HEAD FOR ALL LAYERS

 HEAD WILL BE SAVED ON UNIT   51 AT END OF TIME STEP    1, STRESS PERIOD  263
1
  VOLUMETRIC BUDGET FOR ENTIRE MODEL AT END OF TIME STEP    1, STRESS PERIOD 263
  ------------------------------------------------------------------------------

     CUMULATIVE VOLUMES      L**3       RATES FOR THIS TIME STEP      L**3/T
     ------------------                 ------------------------

           IN:                                      IN:
           ---                                      ---
             STORAGE =        1413.1713               STORAGE =           0.1783
       CONSTANT HEAD =           0.0000         CONSTANT HEAD =           0.0000
       RIVER LEAKAGE =         140.5282         RIVER LEAKAGE =           0.0000
            RECHARGE =        1629.0203              RECHARGE =           8.9267

            TOTAL IN =        3182.7197              TOTAL IN =           9.1050

          OUT:                                     OUT:
          ----                                     ----
             STORAGE =         739.4564               STORAGE =           5.6122
       CONSTANT HEAD =         853.9218         CONSTANT HEAD =           2.9352
       RIVER LEAKAGE =         765.5475         RIVER LEAKAGE =           0.5577
            RECHARGE =         823.7944              RECHARGE =           0.0000

           TOTAL OUT =        3182.7202             TOTAL OUT =           9.1052

            IN - OUT =      -4.8828E-04              IN - OUT =      -1.3733E-04

 PERCENT DISCREPANCY =          -0.00     PERCENT DISCREPANCY =          -0.00






         TIME SUMMARY AT END OF TIME STEP    1 IN STRESS PERIOD  263
                    SECONDS     MINUTES      HOURS       DAYS        YEARS
                    -----------------------------------------------------------
   TIME STEP LENGTH  86400.      1440.0      24.000      1.0000     2.73785E-03
 STRESS PERIOD TIME  86400.      1440.0      24.000      1.0000     2.73785E-03
         TOTAL TIME 2.27232E+07 3.78720E+05  6312.0      263.00     0.72005    
1
1
                            STRESS PERIOD NO.  264, LENGTH =   1.000000    
                            -----------------------------------------------

                              NUMBER OF TIME STEPS =     1

                               MULTIPLIER FOR DELT =     1.000

                            INITIAL TIME STEP SIZE =   1.000000    

 REUSING NON-PARAMETER RIVER REACHES FROM LAST STRESS PERIOD

      2 RIVER REACHES

                 RECHARGE = -2.573276E-04
 
 SOLVING FOR HEAD 

 OUTPUT CONTROL FOR STRESS PERIOD  264   TIME STEP    1
    SAVE HEAD FOR ALL LAYERS

 HEAD WILL BE SAVED ON UNIT   51 AT END OF TIME STEP    1, STRESS PERIOD  264
1
  VOLUMETRIC BUDGET FOR ENTIRE MODEL AT END OF TIME STEP    1, STRESS PERIOD 264
  ------------------------------------------------------------------------------

     CUMULATIVE VOLUMES      L**3       RATES FOR THIS TIME STEP      L**3/T
     ------------------                 ------------------------

           IN:                                      IN:
           ---                                      ---
             STORAGE =        1418.8152               STORAGE =           5.6439
       CONSTANT HEAD =           0.0000         CONSTANT HEAD =           0.0000
       RIVER LEAKAGE =         140.5282         RIVER LEAKAGE =           0.0000
            RECHARGE =        1629.0203              RECHARGE =           0.0000

            TOTAL IN =        3188.3638              TOTAL IN =           5.6439

          OUT:                                     OUT:
          ----                                     ----
             STORAGE =         739.4564               STORAGE =           0.0000
       CONSTANT HEAD =         856.8558         CONSTANT HEAD =           2.9340
       RIVER LEAKAGE =         765.6840         RIVER LEAKAGE =           0.1364
            RECHARGE =         826.3677              RECHARGE =           2.5733

           TOTAL OUT =        3188.3638             TOTAL OUT =           5.6437

            IN - OUT =           0.0000              IN - OUT =       1.9026E-04

 PERCENT DISCREPANCY =           0.00     PERCENT DISCREPANCY =           0.00






         TIME SUMMARY AT END OF TIME STEP    1 IN STRESS PERIOD  264
                    SECONDS     MINUTES      HOURS       DAYS        YEARS
                    -----------------------------------------------------------
   TIME STEP LENGTH  86400.      1440.0      24.000      1.0000     2.73785E-03
 STRESS PERIOD TIME  86400.      1440.0      24.000      1.0000     2.73785E-03
         TOTAL TIME 2.28096E+07 3.80160E+05  6336.0      264.00     0.72279    
1
1
                            STRESS PERIOD NO.  265, LENGTH =   1.000000    
                            -----------------------------------------------

                              NUMBER OF TIME STEPS =     1

                               MULTIPLIER FOR DELT =     1.000

                            INITIAL TIME STEP SIZE =   1.000000    

 REUSING NON-PARAMETER RIVER REACHES FROM LAST STRESS PERIOD

      2 RIVER REACHES

                 RECHARGE =  2.577586E-04
 
 SOLVING FOR HEAD 

 OUTPUT CONTROL FOR STRESS PERIOD  265   TIME STEP    1
    SAVE HEAD FOR ALL LAYERS

 HEAD WILL BE SAVED ON UNIT   51 AT END OF TIME STEP    1, STRESS PERIOD  265
1
  VOLUMETRIC BUDGET FOR ENTIRE MODEL AT END OF TIME STEP    1, STRESS PERIOD 265
  ------------------------------------------------------------------------------

     CUMULATIVE VOLUMES      L**3       RATES FOR THIS TIME STEP      L**3/T
     ------------------                 ------------------------

           IN:                                      IN:
           ---                                      ---
             STORAGE =        1419.6246               STORAGE =           0.8095
       CONSTANT HEAD =           0.0000         CONSTANT HEAD =           0.0000
       RIVER LEAKAGE =         140.5282         RIVER LEAKAGE =           0.0000
            RECHARGE =        1631.5979              RECHARGE =           2.5776

            TOTAL IN =        3191.7507              TOTAL IN =           3.3871

          OUT:                                     OUT:
          ----                                     ----
             STORAGE =         739.8405               STORAGE =           0.3841
       CONSTANT HEAD =         859.7886         CONSTANT HEAD =           2.9328
       RIVER LEAKAGE =         765.7543         RIVER LEAKAGE =       7.0337E-02
            RECHARGE =         826.3677              RECHARGE =           0.0000

           TOTAL OUT =        3191.7510             TOTAL OUT =           3.3872

            IN - OUT =      -2.4414E-04              IN - OUT =      -1.9073E-04

 PERCENT DISCREPANCY =          -0.00     PERCENT DISCREPANCY =          -0.01






         TIME SUMMARY AT END OF TIME STEP    1 IN STRESS PERIOD  265
                    SECONDS     MINUTES      HOURS       DAYS        YEARS
                    -----------------------------------------------------------
   TIME STEP LENGTH  86400.      1440.0      24.000      1.0000     2.73785E-03
 STRESS PERIOD TIME  86400.      1440.0      24.000      1.0000     2.73785E-03
         TOTAL TIME 2.28960E+07 3.81600E+05  6360.0      265.00     0.72553    
1
1
                            STRESS PERIOD NO.  266, LENGTH =   1.000000    
                            -----------------------------------------------

                              NUMBER OF TIME STEPS =     1

                               MULTIPLIER FOR DELT =     1.000

                            INITIAL TIME STEP SIZE =   1.000000    

 REUSING NON-PARAMETER RIVER REACHES FROM LAST STRESS PERIOD

      2 RIVER REACHES

                 RECHARGE = -2.068966E-04
 
 SOLVING FOR HEAD 

 OUTPUT CONTROL FOR STRESS PERIOD  266   TIME STEP    1
    SAVE HEAD FOR ALL LAYERS

 HEAD WILL BE SAVED ON UNIT   51 AT END OF TIME STEP    1, STRESS PERIOD  266
1
  VOLUMETRIC BUDGET FOR ENTIRE MODEL AT END OF TIME STEP    1, STRESS PERIOD 266
  ------------------------------------------------------------------------------

     CUMULATIVE VOLUMES      L**3       RATES FOR THIS TIME STEP      L**3/T
     ------------------                 ------------------------

           IN:                                      IN:
           ---                                      ---
             STORAGE =        1424.4681               STORAGE =           4.8436
       CONSTANT HEAD =           0.0000         CONSTANT HEAD =           0.0000
       RIVER LEAKAGE =         140.6851         RIVER LEAKAGE =           0.1569
            RECHARGE =        1631.5979              RECHARGE =           0.0000

            TOTAL IN =        3196.7512              TOTAL IN =           5.0005

          OUT:                                     OUT:
          ----                                     ----
             STORAGE =         739.8405               STORAGE =           0.0000
       CONSTANT HEAD =         862.7201         CONSTANT HEAD =           2.9314
       RIVER LEAKAGE =         765.7543         RIVER LEAKAGE =           0.0000
            RECHARGE =         828.4366              RECHARGE =           2.0690

           TOTAL OUT =        3196.7515             TOTAL OUT =           5.0004

            IN - OUT =      -2.4414E-04              IN - OUT =       6.2943E-05

 PERCENT DISCREPANCY =          -0.00     PERCENT DISCREPANCY =           0.00






         TIME SUMMARY AT END OF TIME STEP    1 IN STRESS PERIOD  266
                    SECONDS     MINUTES      HOURS       DAYS        YEARS
                    -----------------------------------------------------------
   TIME STEP LENGTH  86400.      1440.0      24.000      1.0000     2.73785E-03
 STRESS PERIOD TIME  86400.      1440.0      24.000      1.0000     2.73785E-03
         TOTAL TIME 2.29824E+07 3.83040E+05  6384.0      266.00     0.72827    
1
1
                            STRESS PERIOD NO.  267, LENGTH =   1.000000    
                            -----------------------------------------------

                              NUMBER OF TIME STEPS =     1

                               MULTIPLIER FOR DELT =     1.000

                            INITIAL TIME STEP SIZE =   1.000000    

 REUSING NON-PARAMETER RIVER REACHES FROM LAST STRESS PERIOD

      2 RIVER REACHES

                 RECHARGE = -3.655172E-04
 
 SOLVING FOR HEAD 

 OUTPUT CONTROL FOR STRESS PERIOD  267   TIME STEP    1
    SAVE HEAD FOR ALL LAYERS

 HEAD WILL BE SAVED ON UNIT   51 AT END OF TIME STEP    1, STRESS PERIOD  267
1
  VOLUMETRIC BUDGET FOR ENTIRE MODEL AT END OF TIME STEP    1, STRESS PERIOD 267
  ------------------------------------------------------------------------------

     CUMULATIVE VOLUMES      L**3       RATES FOR THIS TIME STEP      L**3/T
     ------------------                 ------------------------

           IN:                                      IN:
           ---                                      ---
             STORAGE =        1430.6869               STORAGE =           6.2187
       CONSTANT HEAD =           0.0000         CONSTANT HEAD =           0.0000
       RIVER LEAKAGE =         141.0513         RIVER LEAKAGE =           0.3662
            RECHARGE =        1631.5979              RECHARGE =           0.0000

            TOTAL IN =        3203.3359              TOTAL IN =           6.5849

          OUT:                                     OUT:
          ----                                     ----
             STORAGE =         739.8405               STORAGE =           0.0000
       CONSTANT HEAD =         865.6500         CONSTANT HEAD =           2.9299
       RIVER LEAKAGE =         765.7543         RIVER LEAKAGE =           0.0000
            RECHARGE =         832.0918              RECHARGE =           3.6552

           TOTAL OUT =        3203.3364             TOTAL OUT =           6.5851

            IN - OUT =      -4.8828E-04              IN - OUT =      -1.8597E-04

 PERCENT DISCREPANCY =          -0.00     PERCENT DISCREPANCY =          -0.00






         TIME SUMMARY AT END OF TIME STEP    1 IN STRESS PERIOD  267
                    SECONDS     MINUTES      HOURS       DAYS        YEARS
                    -----------------------------------------------------------
   TIME STEP LENGTH  86400.      1440.0      24.000      1.0000     2.73785E-03
 STRESS PERIOD TIME  86400.      1440.0      24.000      1.0000     2.73785E-03
         TOTAL TIME 2.30688E+07 3.84480E+05  6408.0      267.00     0.73101    
1
1
                            STRESS PERIOD NO.  268, LENGTH =   1.000000    
                            -----------------------------------------------

                              NUMBER OF TIME STEPS =     1

                               MULTIPLIER FOR DELT =     1.000

                            INITIAL TIME STEP SIZE =   1.000000    

 REUSING NON-PARAMETER RIVER REACHES FROM LAST STRESS PERIOD

      2 RIVER REACHES

                 RECHARGE =  3.073276E-04
 
 SOLVING FOR HEAD 

 OUTPUT CONTROL FOR STRESS PERIOD  268   TIME STEP    1
    SAVE HEAD FOR ALL LAYERS

 HEAD WILL BE SAVED ON UNIT   51 AT END OF TIME STEP    1, STRESS PERIOD  268
1
  VOLUMETRIC BUDGET FOR ENTIRE MODEL AT END OF TIME STEP    1, STRESS PERIOD 268
  ------------------------------------------------------------------------------

     CUMULATIVE VOLUMES      L**3       RATES FOR THIS TIME STEP      L**3/T
     ------------------                 ------------------------

           IN:                                      IN:
           ---                                      ---
             STORAGE =        1430.9579               STORAGE =           0.2710
       CONSTANT HEAD =           0.0000         CONSTANT HEAD =           0.0000
       RIVER LEAKAGE =         141.3387         RIVER LEAKAGE =           0.2874
            RECHARGE =        1634.6711              RECHARGE =           3.0733

            TOTAL IN =        3206.9678              TOTAL IN =           3.6316

          OUT:                                     OUT:
          ----                                     ----
             STORAGE =         740.5435               STORAGE =           0.7030
       CONSTANT HEAD =         868.5786         CONSTANT HEAD =           2.9286
       RIVER LEAKAGE =         765.7543         RIVER LEAKAGE =           0.0000
            RECHARGE =         832.0918              RECHARGE =           0.0000

           TOTAL OUT =        3206.9683             TOTAL OUT =           3.6316

            IN - OUT =      -4.8828E-04              IN - OUT =       2.3127E-05

 PERCENT DISCREPANCY =          -0.00     PERCENT DISCREPANCY =           0.00






         TIME SUMMARY AT END OF TIME STEP    1 IN STRESS PERIOD  268
                    SECONDS     MINUTES      HOURS       DAYS        YEARS
                    -----------------------------------------------------------
   TIME STEP LENGTH  86400.      1440.0      24.000      1.0000     2.73785E-03
 STRESS PERIOD TIME  86400.      1440.0      24.000      1.0000     2.73785E-03
         TOTAL TIME 2.31552E+07 3.85920E+05  6432.0      268.00     0.73374    
1
1
                            STRESS PERIOD NO.  269, LENGTH =   1.000000    
                            -----------------------------------------------

                              NUMBER OF TIME STEPS =     1

                               MULTIPLIER FOR DELT =     1.000

                            INITIAL TIME STEP SIZE =   1.000000    

 REUSING NON-PARAMETER RIVER REACHES FROM LAST STRESS PERIOD

      2 RIVER REACHES

                 RECHARGE =  4.413793E-04
 
 SOLVING FOR HEAD 

 OUTPUT CONTROL FOR STRESS PERIOD  269   TIME STEP    1
    SAVE HEAD FOR ALL LAYERS

 HEAD WILL BE SAVED ON UNIT   51 AT END OF TIME STEP    1, STRESS PERIOD  269
1
  VOLUMETRIC BUDGET FOR ENTIRE MODEL AT END OF TIME STEP    1, STRESS PERIOD 269
  ------------------------------------------------------------------------------

     CUMULATIVE VOLUMES      L**3       RATES FOR THIS TIME STEP      L**3/T
     ------------------                 ------------------------

           IN:                                      IN:
           ---                                      ---
             STORAGE =        1431.0575               STORAGE =       9.9659E-02
       CONSTANT HEAD =           0.0000         CONSTANT HEAD =           0.0000
       RIVER LEAKAGE =         141.5614         RIVER LEAKAGE =           0.2227
            RECHARGE =        1639.0850              RECHARGE =           4.4138

            TOTAL IN =        3211.7039              TOTAL IN =           4.7362

          OUT:                                     OUT:
          ----                                     ----
             STORAGE =         742.3521               STORAGE =           1.8087
       CONSTANT HEAD =         871.5059         CONSTANT HEAD =           2.9273
       RIVER LEAKAGE =         765.7543         RIVER LEAKAGE =           0.0000
            RECHARGE =         832.0918              RECHARGE =           0.0000

           TOTAL OUT =        3211.7041             TOTAL OUT =           4.7360

            IN - OUT =      -2.4414E-04              IN - OUT =       1.8597E-04

 PERCENT DISCREPANCY =          -0.00     PERCENT DISCREPANCY =           0.00






         TIME SUMMARY AT END OF TIME STEP    1 IN STRESS PERIOD  269
                    SECONDS     MINUTES      HOURS       DAYS        YEARS
                    -----------------------------------------------------------
   TIME STEP LENGTH  86400.      1440.0      24.000      1.0000     2.73785E-03
 STRESS PERIOD TIME  86400.      1440.0      24.000      1.0000     2.73785E-03
         TOTAL TIME 2.32416E+07 3.87360E+05  6456.0      269.00     0.73648    
1
1
                            STRESS PERIOD NO.  270, LENGTH =   1.000000    
                            -----------------------------------------------

                              NUMBER OF TIME STEPS =     1

                               MULTIPLIER FOR DELT =     1.000

                            INITIAL TIME STEP SIZE =   1.000000    

 REUSING NON-PARAMETER RIVER REACHES FROM LAST STRESS PERIOD

      2 RIVER REACHES

                 RECHARGE =  1.384483E-03
 
 SOLVING FOR HEAD 

 OUTPUT CONTROL FOR STRESS PERIOD  270   TIME STEP    1
    SAVE HEAD FOR ALL LAYERS

 HEAD WILL BE SAVED ON UNIT   51 AT END OF TIME STEP    1, STRESS PERIOD  270
1
  VOLUMETRIC BUDGET FOR ENTIRE MODEL AT END OF TIME STEP    1, STRESS PERIOD 270
  ------------------------------------------------------------------------------

     CUMULATIVE VOLUMES      L**3       RATES FOR THIS TIME STEP      L**3/T
     ------------------                 ------------------------

           IN:                                      IN:
           ---                                      ---
             STORAGE =        1431.1489               STORAGE =       9.1463E-02
       CONSTANT HEAD =           0.0000         CONSTANT HEAD =           0.0000
       RIVER LEAKAGE =         141.5614         RIVER LEAKAGE =           0.0000
            RECHARGE =        1652.9298              RECHARGE =          13.8448

            TOTAL IN =        3225.6401              TOTAL IN =          13.9363

          OUT:                                     OUT:
          ----                                     ----
             STORAGE =         753.2242               STORAGE =          10.8722
       CONSTANT HEAD =         874.4323         CONSTANT HEAD =           2.9264
       RIVER LEAKAGE =         765.8922         RIVER LEAKAGE =           0.1378
            RECHARGE =         832.0918              RECHARGE =           0.0000

           TOTAL OUT =        3225.6404             TOTAL OUT =          13.9364

            IN - OUT =      -2.4414E-04              IN - OUT =      -1.2684E-04

 PERCENT DISCREPANCY =          -0.00     PERCENT DISCREPANCY =          -0.00






         TIME SUMMARY AT END OF TIME STEP    1 IN STRESS PERIOD  270
                    SECONDS     MINUTES      HOURS       DAYS        YEARS
                    -----------------------------------------------------------
   TIME STEP LENGTH  86400.      1440.0      24.000      1.0000     2.73785E-03
 STRESS PERIOD TIME  86400.      1440.0      24.000      1.0000     2.73785E-03
         TOTAL TIME 2.33280E+07 3.88800E+05  6480.0      270.00     0.73922    
1
1
                            STRESS PERIOD NO.  271, LENGTH =   1.000000    
                            -----------------------------------------------

                              NUMBER OF TIME STEPS =     1

                               MULTIPLIER FOR DELT =     1.000

                            INITIAL TIME STEP SIZE =   1.000000    

 REUSING NON-PARAMETER RIVER REACHES FROM LAST STRESS PERIOD

      2 RIVER REACHES

                 RECHARGE =  6.827586E-04
 
 SOLVING FOR HEAD 

 OUTPUT CONTROL FOR STRESS PERIOD  271   TIME STEP    1
    SAVE HEAD FOR ALL LAYERS

 HEAD WILL BE SAVED ON UNIT   51 AT END OF TIME STEP    1, STRESS PERIOD  271
1
  VOLUMETRIC BUDGET FOR ENTIRE MODEL AT END OF TIME STEP    1, STRESS PERIOD 271
  ------------------------------------------------------------------------------

     CUMULATIVE VOLUMES      L**3       RATES FOR THIS TIME STEP      L**3/T
     ------------------                 ------------------------

           IN:                                      IN:
           ---                                      ---
             STORAGE =        1431.2391               STORAGE =       9.0249E-02
       CONSTANT HEAD =           0.0000         CONSTANT HEAD =           0.0000
       RIVER LEAKAGE =         141.5614         RIVER LEAKAGE =           0.0000
            RECHARGE =        1659.7574              RECHARGE =           6.8276

            TOTAL IN =        3232.5581              TOTAL IN =           6.9178

          OUT:                                     OUT:
          ----                                     ----
             STORAGE =         757.0981               STORAGE =           3.8739
       CONSTANT HEAD =         877.3578         CONSTANT HEAD =           2.9255
       RIVER LEAKAGE =         766.0104         RIVER LEAKAGE =           0.1183
            RECHARGE =         832.0918              RECHARGE =           0.0000

           TOTAL OUT =        3232.5581             TOTAL OUT =           6.9176

            IN - OUT =           0.0000              IN - OUT =       1.8978E-04

 PERCENT DISCREPANCY =           0.00     PERCENT DISCREPANCY =           0.00






         TIME SUMMARY AT END OF TIME STEP    1 IN STRESS PERIOD  271
                    SECONDS     MINUTES      HOURS       DAYS        YEARS
                    -----------------------------------------------------------
   TIME STEP LENGTH  86400.      1440.0      24.000      1.0000     2.73785E-03
 STRESS PERIOD TIME  86400.      1440.0      24.000      1.0000     2.73785E-03
         TOTAL TIME 2.34144E+07 3.90240E+05  6504.0      271.00     0.74196    
1
1
                            STRESS PERIOD NO.  272, LENGTH =   1.000000    
                            -----------------------------------------------

                              NUMBER OF TIME STEPS =     1

                               MULTIPLIER FOR DELT =     1.000

                            INITIAL TIME STEP SIZE =   1.000000    

 REUSING NON-PARAMETER RIVER REACHES FROM LAST STRESS PERIOD

      2 RIVER REACHES

                 RECHARGE =  1.098276E-03
 
 SOLVING FOR HEAD 

 OUTPUT CONTROL FOR STRESS PERIOD  272   TIME STEP    1
    SAVE HEAD FOR ALL LAYERS

 HEAD WILL BE SAVED ON UNIT   51 AT END OF TIME STEP    1, STRESS PERIOD  272
1
  VOLUMETRIC BUDGET FOR ENTIRE MODEL AT END OF TIME STEP    1, STRESS PERIOD 272
  ------------------------------------------------------------------------------

     CUMULATIVE VOLUMES      L**3       RATES FOR THIS TIME STEP      L**3/T
     ------------------                 ------------------------

           IN:                                      IN:
           ---                                      ---
             STORAGE =        1431.3209               STORAGE =       8.1797E-02
       CONSTANT HEAD =           0.0000         CONSTANT HEAD =           0.0000
       RIVER LEAKAGE =         141.5614         RIVER LEAKAGE =           0.0000
            RECHARGE =        1670.7402              RECHARGE =          10.9828

            TOTAL IN =        3243.6226              TOTAL IN =          11.0646

          OUT:                                     OUT:
          ----                                     ----
             STORAGE =         764.9539               STORAGE =           7.8558
       CONSTANT HEAD =         880.2825         CONSTANT HEAD =           2.9247
       RIVER LEAKAGE =         766.2948         RIVER LEAKAGE =           0.2843
            RECHARGE =         832.0918              RECHARGE =           0.0000

           TOTAL OUT =        3243.6230             TOTAL OUT =          11.0648

            IN - OUT =      -4.8828E-04              IN - OUT =      -2.1744E-04

 PERCENT DISCREPANCY =          -0.00     PERCENT DISCREPANCY =          -0.00






         TIME SUMMARY AT END OF TIME STEP    1 IN STRESS PERIOD  272
                    SECONDS     MINUTES      HOURS       DAYS        YEARS
                    -----------------------------------------------------------
   TIME STEP LENGTH  86400.      1440.0      24.000      1.0000     2.73785E-03
 STRESS PERIOD TIME  86400.      1440.0      24.000      1.0000     2.73785E-03
         TOTAL TIME 2.35008E+07 3.91680E+05  6528.0      272.00     0.74470    
1

 Run end date and time (yyyy/mm/dd hh:mm:ss): 2018/11/28 12:07:49
 Elapsed run time:  0.822 Seconds

